
# IMI environment for MSU-HPC Orion

module purge
module load intel-oneapi-compilers/2022.2.1
module load intel-oneapi-mpi/2021.7.1
module load intel-oneapi-mkl/2022.2.1

module load hdf4/4.2.16
alias hdfdump='/apps/other/hdf4-4.2.16/bin/ncdump'
alias hdfgen='/apps/other/hdf4-4.2.16/bin/ncgen'

module load hdf5/1.12.2
module load netcdf-c/4.9.0
module load netcdf-fortran/4.6.0

# Standard packages for carbon tracker
export LC_ALL=en_US.utf8
export HPC_SYSTEM=orion
export TZ=UTC
export KMP_AFFINITY=scatter
# Uncomment following if you want emacs to be the default editor
#export EDITOR='/bin/emacs -nw'
export CARBONTRACKER=/work2/noaa/co2
export R_LIBS_USER=${CARBONTRACKER}/lib/R-%v/orion/%p
#export PYTHONPATH=${CARBONTRACKER}/lib/python/lib/python2.6/site-packages
# Need OMP_NUM_THREADS 1 for ImageMagick/convert
export MAGICK_THREAD_LIMIT=1

export CC=icx
export CXX=icx
export FC=ifort
export F77=${FC}
if [[ "x${NETCDF_HOME}" == "x" ]]; then
   export NETCDF_HOME="${NETCDF_C_HOME}"
fi
export NETCDF_C_ROOT="${NETCDF_HOME}"
export NETCDF_FORTRAN_ROOT="${NETCDF_FORTRAN_HOME}"

alias rptc='shpcrpt -c orion -p co2'
alias rptl='shpcrpt -c orion -p lpdm'

# Modify as desired
export PATH="$PATH:~/bin:${CARBONTRACKER}/bin:~/apps/bin:."

# Added for GEOS-Chem
ulimit -c unlimited   # coredumpsize
ulimit -u 50000       # maxproc
ulimit -v unlimited   # vmemoryuse
ulimit -s unlimited   # stacksize