WARNING: The convection scheme used to generate archived GEOS-FP meteorology 
files changed from RAS to Grell-Freitas starting June 1 2020 with impact on 
vertical transport. Discussion and analysis of the impact is available at 
github.com/geoschem/geos-chem/issues/1409. To fix this issue, different GEOS-Chem 
convection schemes are called based on simulation start time. This ensures 
comparability in GEOS-Chem runs using GEOS-FP fields generated using the RAS 
convection scheme and fields generated using Grell-Freitas, but only if the 
simulation does not cross the June 1 2020 boundary. We therefore recommend 
splitting up GEOS-FP runs in time such that a single simulation does not span 
this date. For example, configure one run to end on June 1 2020 and then use 
its output restart to start another run on June 1. Alternatively consider using 
MERRA2 which was entirely generated with RAS, or GEOS-IT which was entirely 
generated with Grell-Freitas. If you wish to use a GEOS-FP meteorology year 
different from your simulation year please create a GEOS-Chem GitHub issue for 
assistance to avoid accidentally using zero convective precipitation flux.

