[submodule "GEOS-Chem"]
	path = GEOS-Chem
	url = https://github.com/ACMG-CH4/geos-chem.git
