Overview:
===============================================================================

This directory contains the source code for setting up and running the
Integrated Methane Inversion with GEOS-Chem.


Documentation:
===============================================================================

Please see https://integrated-methane-inversion.readthedocs.io


Reference:
===============================================================================

Varon, D.J., D.J. Jacob, M.P. Sulprizio, L.A. Estrada, W.B. Downs, L. Shen,
  S.E. Hancock, H. Nesser, Z. Qu, X. Lu, A. Lorente, A. Tewari, C.A. Randles,
  Integrated Methane Inversion (IMI 1.0): An open-access, cloud-based facility
  for inferring high-resolution methane emissions from TROPOMI satellite
  observations, in prep.
