###############################################################################
#
# Environment file for GCClassic + GNU Compiler Collection 12.2.0
#
###############################################################################

# Display message (if we are in a terminal window)
if [[ $- = *i* ]] ; then
  echo "Loading modules for GEOS-Chem Classic, please wait ..."
fi

#==============================================================================
# Unload all previously-unloaded software
#==============================================================================

# Unload packages loaded with "module load"
module purge

#==============================================================================
# Load software packages for GNU 12.2.0
#==============================================================================
# if [[ $- = *i* ]] ; then
#   echo "... Loading FASRC-built software, please wait ..."
# fi

# Pre-built modules needed for GEOS-Chem
module load gcc/12.2.0
export LIBRARY_PATH=$LD_LIBRARY_PATH

#=========================================================================
# Load Spack-built modules
#=========================================================================

# Setup Spack if it hasn't already been done
# ${SPACK_ROOT} will be blank if the setup-env.sh script hasn't been called.
# (modifiable) Replace "/path/to/spack" with the path to your Spack root directory
if [[ "x${SPACK_ROOT}" == "x" ]]; then
   source /orcd/data/dvaron/001/spack/share/spack/setup-env.sh
fi

# Load esmf, hdf5, netcdf-c, netcdf-fortran, openmpi
spack load esmf%gcc@12.2.0^openmpi@4.1.0

# Load cmake
spack load cmake@3.30.2

# Load netCDF packages (cdo, nco, ncview)
spack load cdo%gcc@12.2.0^openmpi@4.1.0
spack load nco%gcc@12.2.0^openmpi@4.1.0

# Load Flex (Needed for KPP)
spack load flex%gcc@12.2.0

#==============================================================================
# Activate conda environment
#==============================================================================

module load miniforge
conda activate imi_env

#==============================================================================
# Environment variables and related settings
# (NOTE: Lmod will define <module>_HOME variables for each loaded module)
#==============================================================================

# Make all files world-readable by default
umask 022

# Set number of threads for OpenMP.  If running in a SLURM environment,
# use the number of requested cores.  Otherwise use 8 cores for OpenMP.
if [[ "x${SLURM_CPUS_PER_TASK}" == "x" ]]; then
    export OMP_NUM_THREADS=8
else
    export OMP_NUM_THREADS="${SLURM_CPUS_PER_TASK}"
fi

# Max out the stacksize memory limit
export OMP_STACKSIZE="500m"

# Compilers
export CC="gcc"
export CXX="g++"
export FC="gfortran"
export F77="${FC}"

#=========================================================================
# Set environment variables for Spack-built modules
#=========================================================================

# openmpi (needed for GCHP)
export MPI_ROOT=$(spack location -i openmpi)

# esmf (needed for GCHP)
export ESMF_DIR=$(spack location -i esmf)
export ESMF_LIB=${ESMF_DIR}/lib
export ESMF_COMPILER=gfortran
export ESMF_COMM=openmpi
export ESMF_INSTALL_PREFIX=${ESMF_DIR}

# netcdf-c
export NETCDF_HOME=$(spack location -i netcdf-c)
export NETCDF_LIB=$NETCDF_HOME/lib

# netcdf-fortran
export NETCDF_FORTRAN_HOME=$(spack location -i netcdf-fortran)
export NETCDF_FORTRAN_LIB=$NETCDF_FORTRAN_HOME/lib

# flex (needed for KPP)
export FLEX_HOME=$(spack location -i flex)
export FLEX_LIB=$FLEX_HOME/lib
export KPP_FLEX_LIB_DIR=${FLEX_LIB}

export LD_LIBRARY_PATH="$NETCDF_LIB:$NETCDF_FORTRAN_LIB:$LD_LIBRARY_PATH"

#==============================================================================
# Set limits
#==============================================================================

ulimit -c unlimited   # coredumpsize
ulimit -u 50000       # maxproc
ulimit -v unlimited   # vmemoryuse
ulimit -s unlimited   # stacksize

#==============================================================================
# Print information
#==============================================================================

module list

echo ""
echo "Environment:"
echo ""
echo "CC                  : ${CC}"
echo "CXX                 : ${CXX}"
echo "FC                  : ${FC}"
echo "KPP_FLEX_LIB_DIR    : ${KPP_FLEX_LIB_DIR}"
echo "MPI_HOME            : ${MPI_HOME}"
echo "NETCDF_HOME         : ${NETCDF_HOME}"
echo "NETCDF_FORTRAN_HOME : ${NETCDF_FORTRAN_HOME}"
echo "OMP_NUM_THREADS     : ${OMP_NUM_THREADS}"
echo ""
echo "Done sourcing ${BASH_SOURCE[0]}"
