*************   S T A R T I N G   G E O S - C H E M   *************

===> Mode of operation         : GEOS-Chem "Classic"
===> GEOS-Chem version         : 14.7.0
===> Compiler                  : GNU Fortran compiler (aka gfortran)
===> Flexible precision set to : 8-byte real (aka REAL*8)
===> Parallelization w/ OpenMP : ON
===> netCDF diagnostics        : ON
===> netCDF file compression   : SUPPORTED
===> Luo et al (2019) wetdep?  : OFF

===> SIMULATION START TIME: 2026/05/06 14:29 <===

===============================================================================
G E O S - C H E M   U S E R   I N P U T

READ_INPUT_FILE: Opening ./geoschem_config.yml

SIMULATION SETTINGS
-------------------
Simulation name             : carbon
CHEM_INPUTS directory       : /orcd/data/dvaron/001/IMI/ExtData/CHEM_INPUTS/
Species database file       : ./species_database.yml
Turn on verbose output      :     F
Verbose output printed on   : root core only
Start time of run           : 20180505 000000
End time of run             : 20180507 000000
Data Directory              : /orcd/data/dvaron/001/IMI/ExtData/
Meteorology field           : GEOSFP
Turn on GEOS-Chem timers    :     F
Read restart as real8 (skip HEMCO for restart read):     F

GRID SETTINGS
------------
Grid resolution             : 0.25x0.3125
Min/max longitude           :  -108.9062   -97.9688
Min/max latitude            :    25.8750    37.1250
X grid dimension            :    35
Y grid dimension            :    45
Z grid dimension            :    47
Use half-sized polar boxes? :     F
Center on Intl Date Line?   :     T
Is this a nested-grid sim?  :     T
 --> Buffer zone (N S E W ) :     3    3    3    3

TIMESTEP SETTINGS
-----------------
Transport/Convection [sec]  :   300
Chemistry/Emissions  [sec]  :   600
RRTMG rad transfer   [sec]  :     0

TRANSPORT SETTINGS
------------------
Turn on transport?          :     T
Let TPCORE Fill negatives?  :     T
IORD, JORD, KORD for TPCORE?:     3    3    7

CONVECTION SETTINGS
-------------------
Turn on cloud convection?   :     T
Grell-Freitas convection?   :     F

WARNING: Convection will assume met data is prior to 01Jun2020!

PBL MIXING SETTINGS
-------------------
Turn on PBL mixing?         :     T
Turn on non-local PBL?      :     T

AEROSOL SETTINGS
----------------
Aerosol optical property dir: UNKNOWN                                                                                                                                                                                                                                                        
Online SULFATE AEROSOLS?    :     F
Metal catalyzed SO2 ox.?    :     F
Online CARBON AEROSOLS?     :     F
Brown Carbon Aerosol?       :     F
BC Absorption Enhancement?  :     F
Hydrophilic BC AE factor    :  -999.00
Hydrophobic BC AE factor    :  -999.00
Online COMPLEX SOA?         :     F
Semivolatile POA?           :     F
Online DUST AEROSOLS?       :     F
Acid uptake on dust?        :     F
Online SEA SALT AEROSOLS?   :     F
Accum  SEA SALT radii [um]  :  -999.00 -  -999.00
Coarse SEA SALT radii [um]  :  -999.00 -  -999.00
MARINE ORGANIC AEROSOLS?    :     F
Settle strat. aerosols?     :     F
Online SOLID PSC aerosols?  :     F
Allow hom. NAT nucleation?  :     F
NAT supercooling requirement:  -999.00K
Ice supersaturation req.    : ********K
Perform PSC het. chemistry? :     F
Use strat. aerosol OD?      :     F

DRY DEPOSITION SETTINGS
-----------------------
Turn on dry deposition?     :     F
Dry dep over full PBL?      :     F
Turn on CO2 effect?         :     F
CO2 level                   :  -999.00
CO2 reference level         :  -999.00
RIX scaling factor          :     1.00

WET DEPOSITION SETTINGS
-----------------------
Turn on wet deposition?     :     F

CHEMISTRY SETTINGS
------------------
Turn on chemistry?          :     T
Use linear. mesospheric chem:     F
 => Use Linoz for O3?       :     F
Online strat. H2O?          :     F
Use robust strat H2O BC?    :     F
GAMMA HO2                   : ****
Use auto-reduce solver?     :     F
Absolute AR threshold       : *****
Use prs. dependent thres?   :     F
Keep halogen spec. active?  :     F
Use append in auto-reduce?  :     F

PHOTOLYSIS SETTINGS
-------------------
Turn on photolysis?         :     F
FAST-JX input directory     : UNKNOWN
Cloud-J input directory     : UNKNOWN
Number levels with cloud    :  -999
Cloud-J cloud flag          :  -999
Layer OD increase factor    : -999.000
Min cloud OD at top         : -999.000
Cloud correlation           : -999.000
Max # of overlap bins       :  -999
Sphere correction           :  -999
Number of wavelength bins   :  -999
Use H2O UV absorption?      :     F
Use online ozone?           :     F
Use ozone from met?         :     F
Use TOMS/SBUV ozone?        :     F
Photolyse nitrate aerosol?  :     F
JNITs scaling of JHNO3      : -999.000
JNIT scaling of JHNO3       : -999.000
JNIT(s) channel A (HONO)    : -999.000
JNIT(s) channel B (NO2)     : -999.000

RRTMG SETTINGS
--------------
Turn on radiation?          :     F
Consider longwave?          :     F
Consider shortwave?         :     F
Clear-sky flux?             :     F
All-sky flux?               :     F
CO2 VMR in ppmv             :  -999.0
Fixed dyn. heat. assumption?:     F
 --> Seasonal evolution?    :     F
 --> Extend to TOA?         :     F
 --> Read in dyn. heating?  :     F

CH4 SETTINGS
-----------------------
Use AIRS obs operator?   :     F
Use GOSAT obs operator?  :     F
Use TCCON obs operator?  :     F
Perturb CH4 BCs?         :     F
CH4 BC ppb increase NSEW :     0.0000     0.0000     0.0000     0.0000

CO SETTINGS
(overwrites any other settings related to CO)
---------------------------------------------
Use archived P(CO) from CH4?   :    T
Use archived P(CO) from NMVOC? :    T

CO2 SETTINGS
(overwrites any other settings related to CO2)
----------------------------------------------
Use archived P(CO2) from CO?  :    T

OBSPACK SETTINGS
----------------
Turn on ObsPack diagnostic? :     F
Suppress logfile output?    :     F
ObsPack input file          : ./obspack_input_for_testing.20190701.nc
ObsPack output file         : ./OutputDir/GEOSChem.ObsPack.YYYYMMDD_hhmmz.nc4

PLANEFLIGHT DIAGNOSTIC SETTINGS
-------------------------------
Turn on planeflight diag?   :     F
Flight track input file     : Planeflight.dat.YYYYMMDD
Output file name            : ./OutputDir/plane.log.YYYYMMDD

TIMESTEPS SETTINGS
------------------
Chemistry  Timestep [sec]   :    600
Convection Timestep [sec]   :    300
Dynamics   Timestep [sec]   :    300
Emission   Timestep [sec]   :    600
Unit Conv  Timestep [sec]   :    300
Diagnostic Timestep [sec]   :    600
Radiation  Timestep [sec]   :      0

!!!!!!!!!!!!!!!!!!!!!!!!!!!!!!!!!!!!!!!!!!!!!!!!!!!!!!!!!!!!!!!!!!!!!!!!!!!!!!!
!!! GEOS-CHEM IS IN DRY-RUN MODE!
!!!
!!! You will NOT get output for this run!
!!! Use this command to validate a GEOS-Chem run configuration:
!!!   ./gcclassic --dryrun > log
!!!
!!! REMOVE THE --dryrun ARGUMENT FROM THE COMMAND LINE
!!! BEFORE RUNNING A GEOS-Chem PRODUCTION SIMULATION!
!!!!!!!!!!!!!!!!!!!!!!!!!!!!!!!!!!!!!!!!!!!!!!!!!!!!!!!!!!!!!!!!!!!!!!!!!!!!!!!
!!! Start Date       : 20180505 000000
!!! End Date         : 20180507 000000
!!! Simulation       : carbon
!!! Meteorology      : GEOSFP
!!! Grid Resolution  : 0.25x0.3125
!!!!!!!!!!!!!!!!!!!!!!!!!!!!!!!!!!!!!!!!!!!!!!!!!!!!!!!!!!!!!!!!!!!!!!!!!!!!!!!


%%%%%%%%%%%%%%% GLOBAL GRID %%%%%%%%%%%%%%%

Grid box longitude centers [degrees]: 
-180.00000 -179.68750 -179.37500 -179.06250 -178.75000 -178.43750 -178.12500
-177.81250 -177.50000 -177.18750 -176.87500 -176.56250 -176.25000 -175.93750
-175.62500 -175.31250 -175.00000 -174.68750 -174.37500 -174.06250 -173.75000
-173.43750 -173.12500 -172.81250 -172.50000 -172.18750 -171.87500 -171.56250
-171.25000 -170.93750 -170.62500 -170.31250 -170.00000 -169.68750 -169.37500
-169.06250 -168.75000 -168.43750 -168.12500 -167.81250 -167.50000 -167.18750
-166.87500 -166.56250 -166.25000 -165.93750 -165.62500 -165.31250 -165.00000
-164.68750 -164.37500 -164.06250 -163.75000 -163.43750 -163.12500 -162.81250
-162.50000 -162.18750 -161.87500 -161.56250 -161.25000 -160.93750 -160.62500
-160.31250 -160.00000 -159.68750 -159.37500 -159.06250 -158.75000 -158.43750
-158.12500 -157.81250 -157.50000 -157.18750 -156.87500 -156.56250 -156.25000
-155.93750 -155.62500 -155.31250 -155.00000 -154.68750 -154.37500 -154.06250
-153.75000 -153.43750 -153.12500 -152.81250 -152.50000 -152.18750 -151.87500
-151.56250 -151.25000 -150.93750 -150.62500 -150.31250 -150.00000 -149.68750
-149.37500 -149.06250 -148.75000 -148.43750 -148.12500 -147.81250 -147.50000
-147.18750 -146.87500 -146.56250 -146.25000 -145.93750 -145.62500 -145.31250
-145.00000 -144.68750 -144.37500 -144.06250 -143.75000 -143.43750 -143.12500
-142.81250 -142.50000 -142.18750 -141.87500 -141.56250 -141.25000 -140.93750
-140.62500 -140.31250 -140.00000 -139.68750 -139.37500 -139.06250 -138.75000
-138.43750 -138.12500 -137.81250 -137.50000 -137.18750 -136.87500 -136.56250
-136.25000 -135.93750 -135.62500 -135.31250 -135.00000 -134.68750 -134.37500
-134.06250 -133.75000 -133.43750 -133.12500 -132.81250 -132.50000 -132.18750
-131.87500 -131.56250 -131.25000 -130.93750 -130.62500 -130.31250 -130.00000
-129.68750 -129.37500 -129.06250 -128.75000 -128.43750 -128.12500 -127.81250
-127.50000 -127.18750 -126.87500 -126.56250 -126.25000 -125.93750 -125.62500
-125.31250 -125.00000 -124.68750 -124.37500 -124.06250 -123.75000 -123.43750
-123.12500 -122.81250 -122.50000 -122.18750 -121.87500 -121.56250 -121.25000
-120.93750 -120.62500 -120.31250 -120.00000 -119.68750 -119.37500 -119.06250
-118.75000 -118.43750 -118.12500 -117.81250 -117.50000 -117.18750 -116.87500
-116.56250 -116.25000 -115.93750 -115.62500 -115.31250 -115.00000 -114.68750
-114.37500 -114.06250 -113.75000 -113.43750 -113.12500 -112.81250 -112.50000
-112.18750 -111.87500 -111.56250 -111.25000 -110.93750 -110.62500 -110.31250
-110.00000 -109.68750 -109.37500 -109.06250 -108.75000 -108.43750 -108.12500
-107.81250 -107.50000 -107.18750 -106.87500 -106.56250 -106.25000 -105.93750
-105.62500 -105.31250 -105.00000 -104.68750 -104.37500 -104.06250 -103.75000
-103.43750 -103.12500 -102.81250 -102.50000 -102.18750 -101.87500 -101.56250
-101.25000 -100.93750 -100.62500 -100.31250 -100.00000  -99.68750  -99.37500
 -99.06250  -98.75000  -98.43750  -98.12500  -97.81250  -97.50000  -97.18750
 -96.87500  -96.56250  -96.25000  -95.93750  -95.62500  -95.31250  -95.00000
 -94.68750  -94.37500  -94.06250  -93.75000  -93.43750  -93.12500  -92.81250
 -92.50000  -92.18750  -91.87500  -91.56250  -91.25000  -90.93750  -90.62500
 -90.31250  -90.00000  -89.68750  -89.37500  -89.06250  -88.75000  -88.43750
 -88.12500  -87.81250  -87.50000  -87.18750  -86.87500  -86.56250  -86.25000
 -85.93750  -85.62500  -85.31250  -85.00000  -84.68750  -84.37500  -84.06250
 -83.75000  -83.43750  -83.12500  -82.81250  -82.50000  -82.18750  -81.87500
 -81.56250  -81.25000  -80.93750  -80.62500  -80.31250  -80.00000  -79.68750
 -79.37500  -79.06250  -78.75000  -78.43750  -78.12500  -77.81250  -77.50000
 -77.18750  -76.87500  -76.56250  -76.25000  -75.93750  -75.62500  -75.31250
 -75.00000  -74.68750  -74.37500  -74.06250  -73.75000  -73.43750  -73.12500
 -72.81250  -72.50000  -72.18750  -71.87500  -71.56250  -71.25000  -70.93750
 -70.62500  -70.31250  -70.00000  -69.68750  -69.37500  -69.06250  -68.75000
 -68.43750  -68.12500  -67.81250  -67.50000  -67.18750  -66.87500  -66.56250
 -66.25000  -65.93750  -65.62500  -65.31250  -65.00000  -64.68750  -64.37500
 -64.06250  -63.75000  -63.43750  -63.12500  -62.81250  -62.50000  -62.18750
 -61.87500  -61.56250  -61.25000  -60.93750  -60.62500  -60.31250  -60.00000
 -59.68750  -59.37500  -59.06250  -58.75000  -58.43750  -58.12500  -57.81250
 -57.50000  -57.18750  -56.87500  -56.56250  -56.25000  -55.93750  -55.62500
 -55.31250  -55.00000  -54.68750  -54.37500  -54.06250  -53.75000  -53.43750
 -53.12500  -52.81250  -52.50000  -52.18750  -51.87500  -51.56250  -51.25000
 -50.93750  -50.62500  -50.31250  -50.00000  -49.68750  -49.37500  -49.06250
 -48.75000  -48.43750  -48.12500  -47.81250  -47.50000  -47.18750  -46.87500
 -46.56250  -46.25000  -45.93750  -45.62500  -45.31250  -45.00000  -44.68750
 -44.37500  -44.06250  -43.75000  -43.43750  -43.12500  -42.81250  -42.50000
 -42.18750  -41.87500  -41.56250  -41.25000  -40.93750  -40.62500  -40.31250
 -40.00000  -39.68750  -39.37500  -39.06250  -38.75000  -38.43750  -38.12500
 -37.81250  -37.50000  -37.18750  -36.87500  -36.56250  -36.25000  -35.93750
 -35.62500  -35.31250  -35.00000  -34.68750  -34.37500  -34.06250  -33.75000
 -33.43750  -33.12500  -32.81250  -32.50000  -32.18750  -31.87500  -31.56250
 -31.25000  -30.93750  -30.62500  -30.31250  -30.00000  -29.68750  -29.37500
 -29.06250  -28.75000  -28.43750  -28.12500  -27.81250  -27.50000  -27.18750
 -26.87500  -26.56250  -26.25000  -25.93750  -25.62500  -25.31250  -25.00000
 -24.68750  -24.37500  -24.06250  -23.75000  -23.43750  -23.12500  -22.81250
 -22.50000  -22.18750  -21.87500  -21.56250  -21.25000  -20.93750  -20.62500
 -20.31250  -20.00000  -19.68750  -19.37500  -19.06250  -18.75000  -18.43750
 -18.12500  -17.81250  -17.50000  -17.18750  -16.87500  -16.56250  -16.25000
 -15.93750  -15.62500  -15.31250  -15.00000  -14.68750  -14.37500  -14.06250
 -13.75000  -13.43750  -13.12500  -12.81250  -12.50000  -12.18750  -11.87500
 -11.56250  -11.25000  -10.93750  -10.62500  -10.31250  -10.00000   -9.68750
  -9.37500   -9.06250   -8.75000   -8.43750   -8.12500   -7.81250   -7.50000
  -7.18750   -6.87500   -6.56250   -6.25000   -5.93750   -5.62500   -5.31250
  -5.00000   -4.68750   -4.37500   -4.06250   -3.75000   -3.43750   -3.12500
  -2.81250   -2.50000   -2.18750   -1.87500   -1.56250   -1.25000   -0.93750
  -0.62500   -0.31250    0.00000    0.31250    0.62500    0.93750    1.25000
   1.56250    1.87500    2.18750    2.50000    2.81250    3.12500    3.43750
   3.75000    4.06250    4.37500    4.68750    5.00000    5.31250    5.62500
   5.93750    6.25000    6.56250    6.87500    7.18750    7.50000    7.81250
   8.12500    8.43750    8.75000    9.06250    9.37500    9.68750   10.00000
  10.31250   10.62500   10.93750   11.25000   11.56250   11.87500   12.18750
  12.50000   12.81250   13.12500   13.43750   13.75000   14.06250   14.37500
  14.68750   15.00000   15.31250   15.62500   15.93750   16.25000   16.56250
  16.87500   17.18750   17.50000   17.81250   18.12500   18.43750   18.75000
  19.06250   19.37500   19.68750   20.00000   20.31250   20.62500   20.93750
  21.25000   21.56250   21.87500   22.18750   22.50000   22.81250   23.12500
  23.43750   23.75000   24.06250   24.37500   24.68750   25.00000   25.31250
  25.62500   25.93750   26.25000   26.56250   26.87500   27.18750   27.50000
  27.81250   28.12500   28.43750   28.75000   29.06250   29.37500   29.68750
  30.00000   30.31250   30.62500   30.93750   31.25000   31.56250   31.87500
  32.18750   32.50000   32.81250   33.12500   33.43750   33.75000   34.06250
  34.37500   34.68750   35.00000   35.31250   35.62500   35.93750   36.25000
  36.56250   36.87500   37.18750   37.50000   37.81250   38.12500   38.43750
  38.75000   39.06250   39.37500   39.68750   40.00000   40.31250   40.62500
  40.93750   41.25000   41.56250   41.87500   42.18750   42.50000   42.81250
  43.12500   43.43750   43.75000   44.06250   44.37500   44.68750   45.00000
  45.31250   45.62500   45.93750   46.25000   46.56250   46.87500   47.18750
  47.50000   47.81250   48.12500   48.43750   48.75000   49.06250   49.37500
  49.68750   50.00000   50.31250   50.62500   50.93750   51.25000   51.56250
  51.87500   52.18750   52.50000   52.81250   53.12500   53.43750   53.75000
  54.06250   54.37500   54.68750   55.00000   55.31250   55.62500   55.93750
  56.25000   56.56250   56.87500   57.18750   57.50000   57.81250   58.12500
  58.43750   58.75000   59.06250   59.37500   59.68750   60.00000   60.31250
  60.62500   60.93750   61.25000   61.56250   61.87500   62.18750   62.50000
  62.81250   63.12500   63.43750   63.75000   64.06250   64.37500   64.68750
  65.00000   65.31250   65.62500   65.93750   66.25000   66.56250   66.87500
  67.18750   67.50000   67.81250   68.12500   68.43750   68.75000   69.06250
  69.37500   69.68750   70.00000   70.31250   70.62500   70.93750   71.25000
  71.56250   71.87500   72.18750   72.50000   72.81250   73.12500   73.43750
  73.75000   74.06250   74.37500   74.68750   75.00000   75.31250   75.62500
  75.93750   76.25000   76.56250   76.87500   77.18750   77.50000   77.81250
  78.12500   78.43750   78.75000   79.06250   79.37500   79.68750   80.00000
  80.31250   80.62500   80.93750   81.25000   81.56250   81.87500   82.18750
  82.50000   82.81250   83.12500   83.43750   83.75000   84.06250   84.37500
  84.68750   85.00000   85.31250   85.62500   85.93750   86.25000   86.56250
  86.87500   87.18750   87.50000   87.81250   88.12500   88.43750   88.75000
  89.06250   89.37500   89.68750   90.00000   90.31250   90.62500   90.93750
  91.25000   91.56250   91.87500   92.18750   92.50000   92.81250   93.12500
  93.43750   93.75000   94.06250   94.37500   94.68750   95.00000   95.31250
  95.62500   95.93750   96.25000   96.56250   96.87500   97.18750   97.50000
  97.81250   98.12500   98.43750   98.75000   99.06250   99.37500   99.68750
 100.00000  100.31250  100.62500  100.93750  101.25000  101.56250  101.87500
 102.18750  102.50000  102.81250  103.12500  103.43750  103.75000  104.06250
 104.37500  104.68750  105.00000  105.31250  105.62500  105.93750  106.25000
 106.56250  106.87500  107.18750  107.50000  107.81250  108.12500  108.43750
 108.75000  109.06250  109.37500  109.68750  110.00000  110.31250  110.62500
 110.93750  111.25000  111.56250  111.87500  112.18750  112.50000  112.81250
 113.12500  113.43750  113.75000  114.06250  114.37500  114.68750  115.00000
 115.31250  115.62500  115.93750  116.25000  116.56250  116.87500  117.18750
 117.50000  117.81250  118.12500  118.43750  118.75000  119.06250  119.37500
 119.68750  120.00000  120.31250  120.62500  120.93750  121.25000  121.56250
 121.87500  122.18750  122.50000  122.81250  123.12500  123.43750  123.75000
 124.06250  124.37500  124.68750  125.00000  125.31250  125.62500  125.93750
 126.25000  126.56250  126.87500  127.18750  127.50000  127.81250  128.12500
 128.43750  128.75000  129.06250  129.37500  129.68750  130.00000  130.31250
 130.62500  130.93750  131.25000  131.56250  131.87500  132.18750  132.50000
 132.81250  133.12500  133.43750  133.75000  134.06250  134.37500  134.68750
 135.00000  135.31250  135.62500  135.93750  136.25000  136.56250  136.87500
 137.18750  137.50000  137.81250  138.12500  138.43750  138.75000  139.06250
 139.37500  139.68750  140.00000  140.31250  140.62500  140.93750  141.25000
 141.56250  141.87500  142.18750  142.50000  142.81250  143.12500  143.43750
 143.75000  144.06250  144.37500  144.68750  145.00000  145.31250  145.62500
 145.93750  146.25000  146.56250  146.87500  147.18750  147.50000  147.81250
 148.12500  148.43750  148.75000  149.06250  149.37500  149.68750  150.00000
 150.31250  150.62500  150.93750  151.25000  151.56250  151.87500  152.18750
 152.50000  152.81250  153.12500  153.43750  153.75000  154.06250  154.37500
 154.68750  155.00000  155.31250  155.62500  155.93750  156.25000  156.56250
 156.87500  157.18750  157.50000  157.81250  158.12500  158.43750  158.75000
 159.06250  159.37500  159.68750  160.00000  160.31250  160.62500  160.93750
 161.25000  161.56250  161.87500  162.18750  162.50000  162.81250  163.12500
 163.43750  163.75000  164.06250  164.37500  164.68750  165.00000  165.31250
 165.62500  165.93750  166.25000  166.56250  166.87500  167.18750  167.50000
 167.81250  168.12500  168.43750  168.75000  169.06250  169.37500  169.68750
 170.00000  170.31250  170.62500  170.93750  171.25000  171.56250  171.87500
 172.18750  172.50000  172.81250  173.12500  173.43750  173.75000  174.06250
 174.37500  174.68750  175.00000  175.31250  175.62500  175.93750  176.25000
 176.56250  176.87500  177.18750  177.50000  177.81250  178.12500  178.43750
 178.75000  179.06250  179.37500  179.68750

Grid box latitude centers [degrees]: 
 -89.93750  -89.75000  -89.50000  -89.25000  -89.00000  -88.75000  -88.50000
 -88.25000  -88.00000  -87.75000  -87.50000  -87.25000  -87.00000  -86.75000
 -86.50000  -86.25000  -86.00000  -85.75000  -85.50000  -85.25000  -85.00000
 -84.75000  -84.50000  -84.25000  -84.00000  -83.75000  -83.50000  -83.25000
 -83.00000  -82.75000  -82.50000  -82.25000  -82.00000  -81.75000  -81.50000
 -81.25000  -81.00000  -80.75000  -80.50000  -80.25000  -80.00000  -79.75000
 -79.50000  -79.25000  -79.00000  -78.75000  -78.50000  -78.25000  -78.00000
 -77.75000  -77.50000  -77.25000  -77.00000  -76.75000  -76.50000  -76.25000
 -76.00000  -75.75000  -75.50000  -75.25000  -75.00000  -74.75000  -74.50000
 -74.25000  -74.00000  -73.75000  -73.50000  -73.25000  -73.00000  -72.75000
 -72.50000  -72.25000  -72.00000  -71.75000  -71.50000  -71.25000  -71.00000
 -70.75000  -70.50000  -70.25000  -70.00000  -69.75000  -69.50000  -69.25000
 -69.00000  -68.75000  -68.50000  -68.25000  -68.00000  -67.75000  -67.50000
 -67.25000  -67.00000  -66.75000  -66.50000  -66.25000  -66.00000  -65.75000
 -65.50000  -65.25000  -65.00000  -64.75000  -64.50000  -64.25000  -64.00000
 -63.75000  -63.50000  -63.25000  -63.00000  -62.75000  -62.50000  -62.25000
 -62.00000  -61.75000  -61.50000  -61.25000  -61.00000  -60.75000  -60.50000
 -60.25000  -60.00000  -59.75000  -59.50000  -59.25000  -59.00000  -58.75000
 -58.50000  -58.25000  -58.00000  -57.75000  -57.50000  -57.25000  -57.00000
 -56.75000  -56.50000  -56.25000  -56.00000  -55.75000  -55.50000  -55.25000
 -55.00000  -54.75000  -54.50000  -54.25000  -54.00000  -53.75000  -53.50000
 -53.25000  -53.00000  -52.75000  -52.50000  -52.25000  -52.00000  -51.75000
 -51.50000  -51.25000  -51.00000  -50.75000  -50.50000  -50.25000  -50.00000
 -49.75000  -49.50000  -49.25000  -49.00000  -48.75000  -48.50000  -48.25000
 -48.00000  -47.75000  -47.50000  -47.25000  -47.00000  -46.75000  -46.50000
 -46.25000  -46.00000  -45.75000  -45.50000  -45.25000  -45.00000  -44.75000
 -44.50000  -44.25000  -44.00000  -43.75000  -43.50000  -43.25000  -43.00000
 -42.75000  -42.50000  -42.25000  -42.00000  -41.75000  -41.50000  -41.25000
 -41.00000  -40.75000  -40.50000  -40.25000  -40.00000  -39.75000  -39.50000
 -39.25000  -39.00000  -38.75000  -38.50000  -38.25000  -38.00000  -37.75000
 -37.50000  -37.25000  -37.00000  -36.75000  -36.50000  -36.25000  -36.00000
 -35.75000  -35.50000  -35.25000  -35.00000  -34.75000  -34.50000  -34.25000
 -34.00000  -33.75000  -33.50000  -33.25000  -33.00000  -32.75000  -32.50000
 -32.25000  -32.00000  -31.75000  -31.50000  -31.25000  -31.00000  -30.75000
 -30.50000  -30.25000  -30.00000  -29.75000  -29.50000  -29.25000  -29.00000
 -28.75000  -28.50000  -28.25000  -28.00000  -27.75000  -27.50000  -27.25000
 -27.00000  -26.75000  -26.50000  -26.25000  -26.00000  -25.75000  -25.50000
 -25.25000  -25.00000  -24.75000  -24.50000  -24.25000  -24.00000  -23.75000
 -23.50000  -23.25000  -23.00000  -22.75000  -22.50000  -22.25000  -22.00000
 -21.75000  -21.50000  -21.25000  -21.00000  -20.75000  -20.50000  -20.25000
 -20.00000  -19.75000  -19.50000  -19.25000  -19.00000  -18.75000  -18.50000
 -18.25000  -18.00000  -17.75000  -17.50000  -17.25000  -17.00000  -16.75000
 -16.50000  -16.25000  -16.00000  -15.75000  -15.50000  -15.25000  -15.00000
 -14.75000  -14.50000  -14.25000  -14.00000  -13.75000  -13.50000  -13.25000
 -13.00000  -12.75000  -12.50000  -12.25000  -12.00000  -11.75000  -11.50000
 -11.25000  -11.00000  -10.75000  -10.50000  -10.25000  -10.00000   -9.75000
  -9.50000   -9.25000   -9.00000   -8.75000   -8.50000   -8.25000   -8.00000
  -7.75000   -7.50000   -7.25000   -7.00000   -6.75000   -6.50000   -6.25000
  -6.00000   -5.75000   -5.50000   -5.25000   -5.00000   -4.75000   -4.50000
  -4.25000   -4.00000   -3.75000   -3.50000   -3.25000   -3.00000   -2.75000
  -2.50000   -2.25000   -2.00000   -1.75000   -1.50000   -1.25000   -1.00000
  -0.75000   -0.50000   -0.25000    0.00000    0.25000    0.50000    0.75000
   1.00000    1.25000    1.50000    1.75000    2.00000    2.25000    2.50000
   2.75000    3.00000    3.25000    3.50000    3.75000    4.00000    4.25000
   4.50000    4.75000    5.00000    5.25000    5.50000    5.75000    6.00000
   6.25000    6.50000    6.75000    7.00000    7.25000    7.50000    7.75000
   8.00000    8.25000    8.50000    8.75000    9.00000    9.25000    9.50000
   9.75000   10.00000   10.25000   10.50000   10.75000   11.00000   11.25000
  11.50000   11.75000   12.00000   12.25000   12.50000   12.75000   13.00000
  13.25000   13.50000   13.75000   14.00000   14.25000   14.50000   14.75000
  15.00000   15.25000   15.50000   15.75000   16.00000   16.25000   16.50000
  16.75000   17.00000   17.25000   17.50000   17.75000   18.00000   18.25000
  18.50000   18.75000   19.00000   19.25000   19.50000   19.75000   20.00000
  20.25000   20.50000   20.75000   21.00000   21.25000   21.50000   21.75000
  22.00000   22.25000   22.50000   22.75000   23.00000   23.25000   23.50000
  23.75000   24.00000   24.25000   24.50000   24.75000   25.00000   25.25000
  25.50000   25.75000   26.00000   26.25000   26.50000   26.75000   27.00000
  27.25000   27.50000   27.75000   28.00000   28.25000   28.50000   28.75000
  29.00000   29.25000   29.50000   29.75000   30.00000   30.25000   30.50000
  30.75000   31.00000   31.25000   31.50000   31.75000   32.00000   32.25000
  32.50000   32.75000   33.00000   33.25000   33.50000   33.75000   34.00000
  34.25000   34.50000   34.75000   35.00000   35.25000   35.50000   35.75000
  36.00000   36.25000   36.50000   36.75000   37.00000   37.25000   37.50000
  37.75000   38.00000   38.25000   38.50000   38.75000   39.00000   39.25000
  39.50000   39.75000   40.00000   40.25000   40.50000   40.75000   41.00000
  41.25000   41.50000   41.75000   42.00000   42.25000   42.50000   42.75000
  43.00000   43.25000   43.50000   43.75000   44.00000   44.25000   44.50000
  44.75000   45.00000   45.25000   45.50000   45.75000   46.00000   46.25000
  46.50000   46.75000   47.00000   47.25000   47.50000   47.75000   48.00000
  48.25000   48.50000   48.75000   49.00000   49.25000   49.50000   49.75000
  50.00000   50.25000   50.50000   50.75000   51.00000   51.25000   51.50000
  51.75000   52.00000   52.25000   52.50000   52.75000   53.00000   53.25000
  53.50000   53.75000   54.00000   54.25000   54.50000   54.75000   55.00000
  55.25000   55.50000   55.75000   56.00000   56.25000   56.50000   56.75000
  57.00000   57.25000   57.50000   57.75000   58.00000   58.25000   58.50000
  58.75000   59.00000   59.25000   59.50000   59.75000   60.00000   60.25000
  60.50000   60.75000   61.00000   61.25000   61.50000   61.75000   62.00000
  62.25000   62.50000   62.75000   63.00000   63.25000   63.50000   63.75000
  64.00000   64.25000   64.50000   64.75000   65.00000   65.25000   65.50000
  65.75000   66.00000   66.25000   66.50000   66.75000   67.00000   67.25000
  67.50000   67.75000   68.00000   68.25000   68.50000   68.75000   69.00000
  69.25000   69.50000   69.75000   70.00000   70.25000   70.50000   70.75000
  71.00000   71.25000   71.50000   71.75000   72.00000   72.25000   72.50000
  72.75000   73.00000   73.25000   73.50000   73.75000   74.00000   74.25000
  74.50000   74.75000   75.00000   75.25000   75.50000   75.75000   76.00000
  76.25000   76.50000   76.75000   77.00000   77.25000   77.50000   77.75000
  78.00000   78.25000   78.50000   78.75000   79.00000   79.25000   79.50000
  79.75000   80.00000   80.25000   80.50000   80.75000   81.00000   81.25000
  81.50000   81.75000   82.00000   82.25000   82.50000   82.75000   83.00000
  83.25000   83.50000   83.75000   84.00000   84.25000   84.50000   84.75000
  85.00000   85.25000   85.50000   85.75000   86.00000   86.25000   86.50000
  86.75000   87.00000   87.25000   87.50000   87.75000   88.00000   88.25000
  88.50000   88.75000   89.00000   89.25000   89.50000   89.75000   89.93750

%%%%%%%%%%%% USER-DEFINED GRID %%%%%%%%%%%%

  XMinOffset :          228
  XMaxOffset :          262
  YMinOffset :          464
  YMaxOffset :          508


Grid box longitude centers [degrees]: 
-108.75000 -108.43750 -108.12500 -107.81250 -107.50000 -107.18750 -106.87500
-106.56250 -106.25000 -105.93750 -105.62500 -105.31250 -105.00000 -104.68750
-104.37500 -104.06250 -103.75000 -103.43750 -103.12500 -102.81250 -102.50000
-102.18750 -101.87500 -101.56250 -101.25000 -100.93750 -100.62500 -100.31250
-100.00000  -99.68750  -99.37500  -99.06250  -98.75000  -98.43750  -98.12500

Grid box longitude edges [degrees]: 
-108.90625 -108.59375 -108.28125 -107.96875 -107.65625 -107.34375 -107.03125
-106.71875 -106.40625 -106.09375 -105.78125 -105.46875 -105.15625 -104.84375
-104.53125 -104.21875 -103.90625 -103.59375 -103.28125 -102.96875 -102.65625
-102.34375 -102.03125 -101.71875 -101.40625 -101.09375 -100.78125 -100.46875
-100.15625  -99.84375  -99.53125  -99.21875  -98.90625  -98.59375  -98.28125
 -97.96875

Grid box latitude centers [degrees]: 
  26.00000   26.25000   26.50000   26.75000   27.00000   27.25000   27.50000
  27.75000   28.00000   28.25000   28.50000   28.75000   29.00000   29.25000
  29.50000   29.75000   30.00000   30.25000   30.50000   30.75000   31.00000
  31.25000   31.50000   31.75000   32.00000   32.25000   32.50000   32.75000
  33.00000   33.25000   33.50000   33.75000   34.00000   34.25000   34.50000
  34.75000   35.00000   35.25000   35.50000   35.75000   36.00000   36.25000
  36.50000   36.75000   37.00000

Grid box latitude edges [degrees]: 
  25.87500   26.12500   26.37500   26.62500   26.87500   27.12500   27.37500
  27.62500   27.87500   28.12500   28.37500   28.62500   28.87500   29.12500
  29.37500   29.62500   29.87500   30.12500   30.37500   30.62500   30.87500
  31.12500   31.37500   31.62500   31.87500   32.12500   32.37500   32.62500
  32.87500   33.12500   33.37500   33.62500   33.87500   34.12500   34.37500
  34.62500   34.87500   35.12500   35.37500   35.62500   35.87500   36.12500
  36.37500   36.62500   36.87500   37.12500

SIN( grid box latitude edges )
   0.43641    0.44033    0.44424    0.44815    0.45205    0.45593    0.45981
   0.46368    0.46754    0.47140    0.47524    0.47907    0.48290    0.48672
   0.49052    0.49432    0.49811    0.50189    0.50566    0.50942    0.51317
   0.51691    0.52064    0.52436    0.52807    0.53177    0.53546    0.53914
   0.54281    0.54647    0.55012    0.55375    0.55738    0.56100    0.56461
   0.56820    0.57179    0.57536    0.57893    0.58248    0.58602    0.58955
   0.59307    0.59658    0.60007    0.60356
HISTORY (INIT): Opening ./HISTORY.rc
%%%%%%%%%%%%%%%%%%%%%%%%%%%%%%%%%%%%%%%%%%%%%%%%%%%%%%%%%%%%%%%%%%%%%%%%%%%%%%%
%%%%%               HEMCO: Harmonized Emissions Component                 %%%%%
%%%%%               You are using HEMCO version 3.12.0                    %%%%%
%%%%%%%%%%%%%%%%%%%%%%%%%%%%%%%%%%%%%%%%%%%%%%%%%%%%%%%%%%%%%%%%%%%%%%%%%%%%%%%
HEMCO (INIT): Opening ./HEMCO_Config.rc

HEMCO verbose output is OFF
HEMCO (INIT): Opening ./HEMCO_Config.rc
HEMCO (INIT): Opening ./HEMCO_Config.rc.gmao_metfields
HEMCO (INIT): Opening ./HEMCO_Diagn.rc
HEMCO: Opening /orcd/data/dvaron/001/IMI/ExtData/HEMCO/CH4/v2022-11/Scarpelli_Mexico/MEX_Tia2020_oil_2015.nc
HEMCO: Opening /orcd/data/dvaron/001/IMI/ExtData/HEMCO/CH4/v2022-11/Scarpelli_Mexico/MEX_Tia2020_gas_2015.nc
HEMCO: Opening /orcd/data/dvaron/001/IMI/ExtData/HEMCO/CH4/v2022-11/Scarpelli_Mexico/MEX_Tia2020_coal_2015.nc
HEMCO: Opening /orcd/data/dvaron/001/IMI/ExtData/HEMCO/CH4/v2022-11/Scarpelli_Mexico/MEX_Tia2020_livestock_A_2015.nc
HEMCO: Opening /orcd/data/dvaron/001/IMI/ExtData/HEMCO/CH4/v2022-11/Scarpelli_Mexico/MEX_Tia2020_livestock_B_2015.nc
HEMCO: Opening /orcd/data/dvaron/001/IMI/ExtData/HEMCO/CH4/v2022-11/Scarpelli_Mexico/MEX_Tia2020_landfill_2015.nc
HEMCO: Opening /orcd/data/dvaron/001/IMI/ExtData/HEMCO/CH4/v2022-11/Scarpelli_Mexico/MEX_Tia2020_waste_2015.nc
HEMCO: Opening /orcd/data/dvaron/001/IMI/ExtData/HEMCO/CH4/v2022-11/Scarpelli_Mexico/MEX_Tia2020_rice_2015.nc
HEMCO: Opening /orcd/data/dvaron/001/IMI/ExtData/HEMCO/CH4/v2022-11/Scarpelli_Mexico/MEX_Tia2020_other_anthro_2015.nc
HEMCO: Opening /orcd/data/dvaron/001/IMI/ExtData/HEMCO/CH4/v2020-04/Seeps/Etiope_CH4GeologicalEmis_ScaledToHmiel.1x1.nc
HEMCO: Opening /orcd/data/dvaron/001/IMI/ExtData/HEMCO/CH4/v2022-11/4x5/termites.geos.4x5.nc
HEMCO: Opening /orcd/data/dvaron/001/IMI/ExtData/HEMCO/OLSON_MAP/v2019-02/Olson_2001_Land_Type_Masks.025x025.generic.nc
HEMCO: Opening /orcd/data/dvaron/001/IMI/ExtData/HEMCO/MASKS/v2024-04/Mexico_Mask.01x01.nc
HEMCO: Opening /orcd/data/dvaron/001/IMI/ExtData/HEMCO/MASKS/v2024-04/Mexico_Mask_Mirror.01x01.nc
HEMCO: Opening /orcd/data/dvaron/001/IMI/ExtData/HEMCO/MASKS/v2024-04/Canada_Mask.01x01.nc
HEMCO: Opening /orcd/data/dvaron/001/IMI/ExtData/HEMCO/MASKS/v2024-04/Canada_Mask_Mirror.01x01.nc
HEMCO: Opening /orcd/data/dvaron/001/IMI/ExtData/HEMCO/MASKS/v2024-04/CONUS_Mask.01x01.nc
HEMCO: Opening /orcd/data/dvaron/001/IMI/ExtData/HEMCO/MASKS/v2024-04/CONUS_Mask_Mirror.01x01.nc
HEMCO: Opening /orcd/data/dvaron/001/IMI/ExtData/HEMCO/CH4/v2023-07/Gridded_GHGI_v2/Express_Extension_Gridded_GHGI_Methane_v2_2018.nc
HEMCO: Opening /orcd/data/dvaron/001/IMI/ExtData/HEMCO/CH4/v2024-01/JPL_WetCharts/HEensemble/JPL_WetCharts_2010-2019.Ensemble_Mean.0.5x0.5.nc
HEMCO: Opening /orcd/data/dvaron/001/IMI/ExtData/HEMCO/CH4/v2024-01/ResME/ResME_Dam_Emissions.0.1x0.1.nc
HEMCO: Opening /orcd/data/dvaron/001/IMI/ExtData/HEMCO/CH4/v2024-01/ResME/ResME_Surface_Emissions.0.1x0.1.nc
HEMCO: Opening /orcd/data/dvaron/001/IMI/ExtData/HEMCO/CH4/v2019-10/MeMo_SoilAbs/MeMo_CH4uptake_Climatology.nc
HEMCO: Opening /orcd/data/dvaron/001/IMI/ExtData/HEMCO/GFED4/v2023-03/2018/GFED4_gen.025x025.201805.nc
HEMCO: Opening /orcd/data/dvaron/001/IMI/ExtData/HEMCO/TIMEZONES/v2024-02/timezones_vohra_2017_0.1x0.1.nc
HEMCO: Opening /orcd/data/dvaron/001/IMI/ExtData/HEMCO/OH/v2022-11/v5-07-08/OH_3Dglobal.geos5.72L.4x5.nc
HEMCO: Opening /orcd/data/dvaron/001/IMI/ExtData/HEMCO/CH4/v2024-01/GC_CH4_LOSS/GCC14_72LM.ch4loss.4x5.nc4
HEMCO: Opening /orcd/data/dvaron/001/IMI/ExtData/HEMCO/CH4/v2024-01/GCC_14_Output/2018/GEOSChem.SpeciesConc.20180501_0000z.nc4
HEMCO: Opening /orcd/data/dvaron/001/IMI/ExtData/HEMCO/CH4/v2023-07/Gridded_GHGI_v2/Gridded_GHGI_Methane_v2_Monthly_Scale_Factors_2018.nc
HEMCO: Opening /orcd/data/dvaron/001/IMI/ExtData/HEMCO/CH4/v2017-10/Seasonal_SF/EMICH4_Manure_ScalingFactors.WithClimatology.nc
HEMCO: Opening /orcd/data/dvaron/001/IMI/ExtData/HEMCO/CH4/v2017-10/Seasonal_SF/EMICH4_Rice_ScalingFactors.SetMissing.nc
HEMCO: Opening /orcd/data/dvaron/001/IMI/ExtData/HEMCO/CH4/v2023-04/EDGARv6_SF/EDGARv6_CH4_MonthlyScaleFactors_ENF.0.1x0.1.nc
HEMCO: Opening /orcd/data/dvaron/001/IMI/ExtData/HEMCO/CH4/v2023-04/EDGARv6_SF/EDGARv6_CH4_MonthlyScaleFactors_MNM.0.1x0.1.nc
HEMCO: Opening /orcd/data/dvaron/001/IMI/ExtData/HEMCO/CH4/v2024-01/ResME/reservoir_mask.01x01.nc
HEMCO: Opening /orcd/data/dvaron/001/IMI/ExtData/HEMCO/GFED4/v2023-03/2018/GFED4_dailyfrac_gen.025x025.201805.nc
HEMCO: Opening /orcd/data/dvaron/001/IMI/BCs/v2025-06-blended/GEOSChem.BoundaryConditions.20180505_0000z.nc4
HEMCO: Opening /orcd/data/dvaron/001/IMI/ExtData/HEMCO/Yuan_XLAI/v2021-06/Yuan_proc_MODIS_XLAI.025x025.2018.nc
TIMEZONES (i.e. OFFSETS FROM UTC) WERE COMPUTED FROM LONGITUDE
 HEMCO already called for this timestep. Returning.
HEMCO: Opening /orcd/data/dvaron/001/IMI/ExtData/HEMCO/GFED4/v2023-03/2018/GFED4_dailyfrac_gen.025x025.201805.nc
HEMCO: Opening /orcd/data/dvaron/001/IMI/BCs/v2025-06-blended/GEOSChem.BoundaryConditions.20180506_0000z.nc4
HEMCO: Opening /orcd/data/dvaron/001/IMI/ExtData/HEMCO/Yuan_XLAI/v2021-06/Yuan_proc_MODIS_XLAI.025x025.2018.nc
HEMCO: Opening /orcd/data/dvaron/001/IMI/ExtData/HEMCO/GFED4/v2023-03/2018/GFED4_dailyfrac_gen.025x025.201805.nc
HEMCO: Opening /orcd/data/dvaron/001/IMI/BCs/v2025-06-blended/GEOSChem.BoundaryConditions.20180507_0000z.nc4
HEMCO: Opening /orcd/data/dvaron/001/IMI/ExtData/HEMCO/Yuan_XLAI/v2021-06/Yuan_proc_MODIS_XLAI.025x025.2018.nc

!!!!!!!!!!!!!!!!!!!!!!!!!!!!!!!!!!!!!!!!!!!!!!!!!!!!!!!!!!!!!!!!!!!!!!!!!!!!!!!
!!! GEOS-CHEM IS IN DRY-RUN MODE!
!!!
!!! You will NOT get output for this run!
!!! Use this command to validate a GEOS-Chem run configuration:
!!!   ./gcclassic --dryrun > log
!!!
!!! REMOVE THE --dryrun ARGUMENT FROM THE COMMAND LINE
!!! BEFORE RUNNING A GEOS-Chem PRODUCTION SIMULATION!
!!!!!!!!!!!!!!!!!!!!!!!!!!!!!!!!!!!!!!!!!!!!!!!!!!!!!!!!!!!!!!!!!!!!!!!!!!!!!!!
!!! Start Date       : 20180505 000000
!!! End Date         : 20180507 000000
!!! Simulation       : carbon
!!! Meteorology      : GEOSFP
!!! Grid Resolution  : 0.25x0.3125
!!!!!!!!!!!!!!!!!!!!!!!!!!!!!!!!!!!!!!!!!!!!!!!!!!!!!!!!!!!!!!!!!!!!!!!!!!!!!!!


!!!!!!!!!!!!!!!!!!!!!!!!!!!!!!!!!!!!!!!!!!!!!!!!!!!!!!!!!!!!!!!!!!!!!!!!!!!!!!!
!!! GEOS-CHEM IS IN DRY-RUN MODE!
!!!
!!! You will NOT get output for this run!
!!! Use this command to validate a GEOS-Chem run configuration:
!!!   ./gcclassic --dryrun > log
!!!
!!! REMOVE THE --dryrun ARGUMENT FROM THE COMMAND LINE
!!! BEFORE RUNNING A GEOS-Chem PRODUCTION SIMULATION!
!!!!!!!!!!!!!!!!!!!!!!!!!!!!!!!!!!!!!!!!!!!!!!!!!!!!!!!!!!!!!!!!!!!!!!!!!!!!!!!
!!! Start Date       : 20180505 000000
!!! End Date         : 20180507 000000
!!! Simulation       : carbon
!!! Meteorology      : GEOSFP
!!! Grid Resolution  : 0.25x0.3125
!!!!!!!!!!!!!!!!!!!!!!!!!!!!!!!!!!!!!!!!!!!!!!!!!!!!!!!!!!!!!!!!!!!!!!!!!!!!!!!

     - CLEANUP: deallocating arrays now...

===> SIMULATION END TIME: 2026/05/06 14:29 <===


**************   E N D   O F   G E O S -- C H E M   **************
