if [[ $- = *i* ]] ; then
  echo "Loading modules for GEOS-Chem, please wait ..."
fi

#==============================================================================
# Modules (specific to compute cluster)
#==============================================================================

module purge
module load git/2.17.0-fasrc01

# Modules for CentOS7
module load gcc/10.2.0-fasrc01
module load openmpi/4.1.0-fasrc01
module load netcdf-fortran/4.5.3-fasrc03
module load flex/2.6.4-fasrc01
module load cmake/3.17.3-fasrc01

#==============================================================================
# Environment variables
#==============================================================================

# for gc classic use
export OMP_NUM_THREADS=8
export OMP_STACKSIZE=500m

# Make all files world-readable by default
umask 022

# Specify compiler
export FC=gfortran

# Netcdf variables for CMake
export NetCDF_C_ROOT=${NETCDF_HOME}
export NETCDF_FORTRAN_ROOT=${NETCDF_FORTRAN_HOME}

# Raise memory limits
ulimit -c unlimited              # coredumpsize
ulimit -l unlimited              # memorylocked
ulimit -u 50000                  # maxproc
ulimit -v unlimited              # vmemoryuse
ulimit -s unlimited              # stacksize

# List modules loaded
module list


