#  This run directory was created with:
#  /orcd/data/dvaron/001/vedrau/integrated_methane_inversion/GCClassic/src/GEOS-Chem/run/GCClassic/createRunDir.sh.
# 
#  GEOS-Chem repository version information:
# 
#   Remote URL: https://github.com/geoschem/geos-chem.git
#   Branch: HEAD
#   Commit: GEOS-Chem (science codebase) 14.7.0 release
#   Date: Fri Feb 6 14:42:58 2026 -0500
#   User: Bob Yantosca
#   Hash: df4592e84
# 
# 
#  IMPORTANT: ONLY USE THESE RUNDIR SETTINGS WITH THIS COMMIT!
RUNDIR_GC_MODE='GCClassic'
RUNDIR_DATA_ROOT=/orcd/data/dvaron/001/IMI/ExtData
RUNDIR_SIM_NAME=carbon
RUNDIR_SIM_EXTRA_OPTION=CH4
RUNDIR_COMPLEX_SOA='false'
RUNDIR_SVPOA='false'
RUNDIR_DUSTALK_EXT='off'
RUNDIR_ACID_UPTAKE='false'
RUNDIR_MARINE_POA='false'
RUNDIR_RRTMG_OPTS='false'
RUNDIR_USE_RRTMG='false'
RUNDIR_USE_NLPBL='true '
RUNDIR_USE_ONLINE_O3='true '
RUNDIR_MET_FIELD_CONFIG='HEMCO_Config.rc.gmao_metfields'
RUNDIR_GCAP2_SCENARIO='not_used'
RUNDIR_GISS_RES='not_used'
RUNDIR_GCAP2_VERTRES='not_used'
RUNDIR_GCAP2_RUNID='not_used'
RUNDIR_MET_AVAIL='# 1980-2021'
RUNDIR_USE_AEIC='true'
RUNDIR_GRID_RES='025x03125'
RUNDIR_GRID_RES_LONG='0.25x0.3125'
RUNDIR_GRID_DIR='0.25x0.3125'
RUNDIR_GRID_HALF_POLAR='true '
RUNDIR_GRID_NESTED_SIM='true '
RUNDIR_GRID_BUFFER_ZONE='[3, 3, 3, 3]'

RUNDIR_USE_BCs='true '
RUNDIR_GRID_DOMAIN_NAME='NA'
RUNDIR_GRID_LON_RANGE='[-130.0,  -60.0]'
RUNDIR_GRID_LAT_RANGE='[   9.75,  60.0]'
RUNDIR_MET='GEOSFP'
RUNDIR_MET_LOWERCASE='geosfp'
RUNDIR_MET_DIR="${RUNDIR_DATA_ROOT}/GEOS_${RUNDIR_GRID_DIR}/GEOS_FP"
RUNDIR_MET_DIR_RAW="${RUNDIR_DATA_ROOT}/GEOS_0.25x0.3125/GEOS_FP"

RUNDIR_MET_NONADVECTION_IS_TOP_DOWN=.false.
RUNDIR_MET_RES='025x03125'
RUNDIR_MET_EXT='nc'

RUNDIR_MET_CN_YR=2011

RUNDIR_OFFLINE_BIOVOC_DIR='v2021-12'
RUNDIR_OFFLINE_DUST_DIR='v2021-08'
RUNDIR_OFFLINE_SEASALT_DIR='v2019-01'
RUNDIR_OFFLINE_SOILNOX_DIR='v2021-12'
RUNDIR_OFFLINE_EMIS_RES='0.25x0.3125'
RUNDIR_OFFLINE_EMIS_LAT_RES='025'

RUNDIR_METLIGHTNING='GEOSFP'
RUNDIR_METLIGHTNING_DIR="${RUNDIR_DATA_ROOT}/GEOS_0.25x0.3125/GEOS_FP"
RUNDIR_METLIGHTNING_RES='0.25x0.3125'
RUNDIR_LIGHTNOX_CLIM=false
RUNDIR_LIGHTNOX_DIR='v2020-03'
RUNDIR_MET_LCLIM='2014-2019'

RUNDIR_PHOT_CLD_NLEV=34

RUNDIR_MET_EXTDATA_PRIMARY_EXPORTS="""
${RUNDIR_MET_EXTDATA_PRIMARY_EXPORTS_FOR_WIND}
${RUNDIR_MET_EXTDATA_PRIMARY_EXPORTS_FOR_ADVECTION}

# --- 2D variables, 1-hr averaged ---
ALBD     1 N Y F0;003000 none none ALBEDO   ./MetDir/%y4/%m2/GEOSFP.%y4%m2%d2.A1.025x03125.nc
CLDFRC   1 N Y F0;003000 none none CLDTOT   ./MetDir/%y4/%m2/GEOSFP.%y4%m2%d2.A1.025x03125.nc
EFLUX    1 N Y F0;003000 none none EFLUX    ./MetDir/%y4/%m2/GEOSFP.%y4%m2%d2.A1.025x03125.nc
EVAP     1 N Y F0;003000 none none EVAP     ./MetDir/%y4/%m2/GEOSFP.%y4%m2%d2.A1.025x03125.nc
FRSEAICE 1 N Y F0;003000 none none FRSEAICE ./MetDir/%y4/%m2/GEOSFP.%y4%m2%d2.A1.025x03125.nc
FRSNO    1 N Y F0;003000 none none FRSNO    ./MetDir/%y4/%m2/GEOSFP.%y4%m2%d2.A1.025x03125.nc
GRN      1 N Y F0;003000 none none GRN      ./MetDir/%y4/%m2/GEOSFP.%y4%m2%d2.A1.025x03125.nc
GWETROOT 1 N Y F0;003000 none none GWETROOT ./MetDir/%y4/%m2/GEOSFP.%y4%m2%d2.A1.025x03125.nc
GWETTOP  1 N Y F0;003000 none none GWETTOP  ./MetDir/%y4/%m2/GEOSFP.%y4%m2%d2.A1.025x03125.nc
HFLUX    1 N Y F0;003000 none none HFLUX    ./MetDir/%y4/%m2/GEOSFP.%y4%m2%d2.A1.025x03125.nc
LAI      1 N Y F0;003000 none none LAI      ./MetDir/%y4/%m2/GEOSFP.%y4%m2%d2.A1.025x03125.nc
PARDF    1 N Y F0;003000 none none PARDF    ./MetDir/%y4/%m2/GEOSFP.%y4%m2%d2.A1.025x03125.nc
PARDR    1 N Y F0;003000 none none PARDR    ./MetDir/%y4/%m2/GEOSFP.%y4%m2%d2.A1.025x03125.nc
PBLH     1 N Y F0;003000 none none PBLH     ./MetDir/%y4/%m2/GEOSFP.%y4%m2%d2.A1.025x03125.nc
PRECANV  1 N Y F0;003000 none none PRECANV  ./MetDir/%y4/%m2/GEOSFP.%y4%m2%d2.A1.025x03125.nc
PRECCON  1 N Y F0;003000 none none PRECCON  ./MetDir/%y4/%m2/GEOSFP.%y4%m2%d2.A1.025x03125.nc
PRECLSC  1 N Y F0;003000 none none PRECLSC  ./MetDir/%y4/%m2/GEOSFP.%y4%m2%d2.A1.025x03125.nc
PRECSNO  1 N Y F0;003000 none none PRECSNO  ./MetDir/%y4/%m2/GEOSFP.%y4%m2%d2.A1.025x03125.nc
PRECTOT  1 N Y F0;003000 none none PRECTOT  ./MetDir/%y4/%m2/GEOSFP.%y4%m2%d2.A1.025x03125.nc
QV2M     1 N Y F0;003000 none none QV2M     ./MetDir/%y4/%m2/GEOSFP.%y4%m2%d2.A1.025x03125.nc
SEAICE00 1 N Y F0;003000 none none SEAICE00 ./MetDir/%y4/%m2/GEOSFP.%y4%m2%d2.A1.025x03125.nc
SEAICE10 1 N Y F0;003000 none none SEAICE10 ./MetDir/%y4/%m2/GEOSFP.%y4%m2%d2.A1.025x03125.nc
SEAICE20 1 N Y F0;003000 none none SEAICE20 ./MetDir/%y4/%m2/GEOSFP.%y4%m2%d2.A1.025x03125.nc
SEAICE30 1 N Y F0;003000 none none SEAICE30 ./MetDir/%y4/%m2/GEOSFP.%y4%m2%d2.A1.025x03125.nc
SEAICE40 1 N Y F0;003000 none none SEAICE40 ./MetDir/%y4/%m2/GEOSFP.%y4%m2%d2.A1.025x03125.nc
SEAICE50 1 N Y F0;003000 none none SEAICE50 ./MetDir/%y4/%m2/GEOSFP.%y4%m2%d2.A1.025x03125.nc
SEAICE60 1 N Y F0;003000 none none SEAICE60 ./MetDir/%y4/%m2/GEOSFP.%y4%m2%d2.A1.025x03125.nc
SEAICE70 1 N Y F0;003000 none none SEAICE70 ./MetDir/%y4/%m2/GEOSFP.%y4%m2%d2.A1.025x03125.nc
SEAICE80 1 N Y F0;003000 none none SEAICE80 ./MetDir/%y4/%m2/GEOSFP.%y4%m2%d2.A1.025x03125.nc
SEAICE90 1 N Y F0;003000 none none SEAICE90 ./MetDir/%y4/%m2/GEOSFP.%y4%m2%d2.A1.025x03125.nc

SLP hPa N Y F0;003000 none none SLP ./MetDir/%y4/%m2/GEOSFP.%y4%m2%d2.A1.025x03125.nc

SNODP  1 N Y F0;003000 none none SNODP  ./MetDir/%y4/%m2/GEOSFP.%y4%m2%d2.A1.025x03125.nc
SNOMAS 1 N Y F0;003000 none none SNOMAS ./MetDir/%y4/%m2/GEOSFP.%y4%m2%d2.A1.025x03125.nc
RADSWG 1 N Y F0;003000 none none SWGDN  ./MetDir/%y4/%m2/GEOSFP.%y4%m2%d2.A1.025x03125.nc

TO3 dobson N Y F0;003000 none none TO3 ./MetDir/%y4/%m2/GEOSFP.%y4%m2%d2.A1.025x03125.nc

TROPP hPa N Y F0;003000 none none TROPPT ./MetDir/%y4/%m2/GEOSFP.%y4%m2%d2.A1.025x03125.nc

TSKIN 1 N Y F0;003000 none none TS    ./MetDir/%y4/%m2/GEOSFP.%y4%m2%d2.A1.025x03125.nc
TS    1 N Y F0;003000 none none T2M   ./MetDir/%y4/%m2/GEOSFP.%y4%m2%d2.A1.025x03125.nc
USTAR 1 N Y F0;003000 none none USTAR ./MetDir/%y4/%m2/GEOSFP.%y4%m2%d2.A1.025x03125.nc

U10M m_s-1 N Y F0;003000 none none U10M ./MetDir/%y4/%m2/GEOSFP.%y4%m2%d2.A1.025x03125.nc
V10M m_s-1 N Y F0;003000 none none V10M ./MetDir/%y4/%m2/GEOSFP.%y4%m2%d2.A1.025x03125.nc

Z0 1 N Y F0;003000 none none Z0M ./MetDir/%y4/%m2/GEOSFP.%y4%m2%d2.A1.025x03125.nc

TMPU1 K N Y 0        none none T ./MetDir/%y4/%m2/GEOSFP.%y4%m2%d2.I3.025x03125.nc
TMPU2 K N Y 0;001000 none none T ./MetDir/%y4/%m2/GEOSFP.%y4%m2%d2.I3.025x03125.nc

# --- 3D variables, 3-hr averaged ---
QI     1 N Y F0;013000 none none QI       ./MetDir/%y4/%m2/GEOSFP.%y4%m2%d2.A3cld.025x03125.nc
QL     1 N Y F0;013000 none none QL       ./MetDir/%y4/%m2/GEOSFP.%y4%m2%d2.A3cld.025x03125.nc
TAUCLI 1 N Y F0;013000 none none TAUCLI   ./MetDir/%y4/%m2/GEOSFP.%y4%m2%d2.A3cld.025x03125.nc
TAUCLW 1 N Y F0;013000 none none TAUCLW   ./MetDir/%y4/%m2/GEOSFP.%y4%m2%d2.A3cld.025x03125.nc
OPTDEP 1 N Y F0;013000 none none OPTDEPTH ./MetDir/%y4/%m2/GEOSFP.%y4%m2%d2.A3cld.025x03125.nc
CLDF   1 N Y F0;013000 none none CLOUD    ./MetDir/%y4/%m2/GEOSFP.%y4%m2%d2.A3cld.025x03125.nc
DTRAIN 1 N Y F0;013000 none none DTRAIN   ./MetDir/%y4/%m2/GEOSFP.%y4%m2%d2.A3dyn.025x03125.nc

OMEGA Pa_s-1 N Y F0;013000 none none OMEGA ./MetDir/%y4/%m2/GEOSFP.%y4%m2%d2.A3dyn.025x03125.nc

RH - N Y F0;013000 none none RH ./MetDir/%y4/%m2/GEOSFP.%y4%m2%d2.A3dyn.025x03125.nc

DQRCU    1 N Y F0;013000 none none DQRCU    ./MetDir/%y4/%m2/GEOSFP.%y4%m2%d2.A3mstC.025x03125.nc
DQRLSAN  1 N Y F0;013000 none none DQRLSAN  ./MetDir/%y4/%m2/GEOSFP.%y4%m2%d2.A3mstC.025x03125.nc
REEVAPCN 1 N Y F0;013000 none none REEVAPCN ./MetDir/%y4/%m2/GEOSFP.%y4%m2%d2.A3mstC.025x03125.nc
REEVAPLS 1 N Y F0;013000 none none REEVAPLS ./MetDir/%y4/%m2/GEOSFP.%y4%m2%d2.A3mstC.025x03125.nc
CMFMC    1 N Y F0;013000 none none CMFMC    ./MetDir/%y4/%m2/GEOSFP.%y4%m2%d2.A3mstE.025x03125.nc
PFICU    1 N Y F0;013000 none none PFICU    ./MetDir/%y4/%m2/GEOSFP.%y4%m2%d2.A3mstE.025x03125.nc
PFILSAN  1 N Y F0;013000 none none PFILSAN  ./MetDir/%y4/%m2/GEOSFP.%y4%m2%d2.A3mstE.025x03125.nc
PFLCU    1 N Y F0;013000 none none PFLCU    ./MetDir/%y4/%m2/GEOSFP.%y4%m2%d2.A3mstE.025x03125.nc
PFLLSAN  1 N Y F0;013000 none none PFLLSAN  ./MetDir/%y4/%m2/GEOSFP.%y4%m2%d2.A3mstE.025x03125.nc

# --- Fixed variables, from constants file ---
FRLAKE   1 N Y - none none FRLAKE   ./MetDir/2011/01/GEOSFP.20110101.CN.025x03125.nc
FRLAND   1 N Y - none none FRLAND   ./MetDir/2011/01/GEOSFP.20110101.CN.025x03125.nc
FRLANDIC 1 N Y - none none FRLANDIC ./MetDir/2011/01/GEOSFP.20110101.CN.025x03125.nc
FROCEAN  1 N Y - none none FROCEAN  ./MetDir/2011/01/GEOSFP.20110101.CN.025x03125.nc
#
PHIS m2_s-2 N Y - none none PHIS ./MetDir/2011/01/GEOSFP.20110101.CN.025x03125.nc

# Also include FROCEAN with name OCEAN_MASK to match HEMCO container name for ocean mask
OCEAN_MASK 1 N Y - none none FROCEAN ./MetDir/2011/01/GEOSFP.20110101.CN.025x03125.nc
"""

RUNDIR_MET_EXTDATA_DERIVED_EXPORTS="""
"""
RUNDIR_TRANSPORT_TS='300'
RUNDIR_CHEMISTRY_TS='600'
RUNDIR_CENTER_LON_180='true '
RUNDIR_GISS_RES='not_used'
RUNDIR_DUSTDEAD_TF='-999.0e0'
RUNDIR_DUSTL23M_TF='-999.0e0'
RUNDIR_GRID_NLEV='47'
RUNDIR_SIM_START_DATE=20190101
RUNDIR_SIM_END_DATE=20190201
RUNDIR_SIM_START_TIME='000000'
RUNDIR_SIM_END_TIME='000000'
RUNDIR_HIST_TIME_AVG_DUR='00000100 000000'
RUNDIR_HIST_TIME_AVG_FREQ='00000100 000000'
RUNDIR_HIST_INST_DUR='00000100 000000'
RUNDIR_HIST_INST_FREQ='00000100 000000'
RUNDIR_HIST_MONTHLY_DIAG='1'
RUNDIR_USE_GCCLASSIC_TIMERS='false'
RUNDIR_SEASALT_EXT='off'
RUNDIR_TOMAS_SEASALT='off'
RUNDIR_OFFLINE_SEASALT='true '
RUNDIR_TOMAS_DUSTDEAD='off'
RUNDIR_OFFLINE_DUST='true '
RUNDIR_DUSTDEAD_EXT='off'
RUNDIR_DUSTL23M_EXT='off'
RUNDIR_MEGAN_EXT='off'
RUNDIR_SOILNOX_EXT='off'
RUNDIR_OFFLINE_BIOVOC='true '
RUNDIR_OFFLINE_SOILNOX='true '
RUNDIR_GFED_EXT='on '
RUNDIR_USE_CEDS='true '
RUNDIR_USE_TSC2H6='true '
RUNDIR_USE_XIAOC3H8='true '
RUNDIR_USE_AEIC='true '
RUNDIR_USE_GMDCH4='true '
RUNDIR_USE_SFCVMR='true '
RUNDIR_CMIP6_FIELDS='false'
RUNDIR_GCAP2_VERTRES='47'

RUNDIR_Bry_DIR='STRAT/v2015-01/Bry'
RUNDIR_GMI_DIR='GMI/v2015-02'
RUNDIR_UCX_DIR='UCX/v2018-02'
RUNDIR_GLOBAL_ACTA='* GLOBAL_ACTA    $ROOT/GCClassic_Output/14.0.0/$YYYY/GEOSChem.SpeciesConc.$YYYY$MM01_0000z.nc4      SpeciesConc_ACTA  2010-2019/1-12/1/0 C xyz 1        * - 1 1'
RUNDIR_Br_GC='* Br_GC          $ROOT/GCClassic_Output/14.0.0/$YYYY/GEOSChem.SpeciesConc.$YYYY$MM01_0000z.nc4      SpeciesConc_Br    2010-2019/1-12/1/0 C xyz 1        * - 1 1'
RUNDIR_BrO_GC='* BrO_GC         $ROOT/GCClassic_Output/14.0.0/$YYYY/GEOSChem.SpeciesConc.$YYYY$MM01_0000z.nc4      SpeciesConc_BrO   2010-2019/1-12/1/0 C xyz 1        * - 1 1'

RUNDIR_GLOBAL_CH4='* GLOBAL_CH4     $ROOT/GCClassic_Output/14.0.0/$YYYY/GEOSChem.SpeciesConc.$YYYY$MM01_0000z.nc4      SpeciesConc_CH4   2010-2019/1-12/1/0 C xyz 1        * - 1 1'
RUNDIR_GLOBAL_Cl='* GLOBAL_Cl      $ROOT/CH4/v2024-01/GCC_14_Output/$YYYY/GEOSChem.SpeciesConc.$YYYY$MM01_0000z.nc4      SpeciesConc_Cl    2010-2019/1-12/1/0 C xyz 1        * - 1 1'
RUNDIR_GLOBAL_ClO='* GLOBAL_ClO     $ROOT/GCClassic_Output/14.0.0/$YYYY/GEOSChem.SpeciesConc.$YYYY$MM01_0000z.nc4      SpeciesConc_ClO   2010-2019/1-12/1/0 C xyz 1        * - 1 1'
RUNDIR_GLOBAL_CO='* GLOBAL_CO      $ROOT/GCClassic_Output/14.0.0/$YYYY/GEOSChem.SpeciesConc.$YYYY$MM01_0000z.nc4      SpeciesConc_CO    2010-2019/1-12/1/0 C xyz 1        * - 1 1'
RUNDIR_GLOBAL_HCl='* GLOBAL_HCl     $ROOT/GCClassic_Output/14.0.0/$YYYY/GEOSChem.SpeciesConc.$YYYY$MM01_0000z.nc4      SpeciesConc_HCl   2010-2019/1-12/1/0 C xyz 1        * - 1 1'
RUNDIR_GLOBAL_HCOOH='* GLOBAL_HCOOH   $ROOT/GCClassic_Output/14.0.0/$YYYY/GEOSChem.SpeciesConc.$YYYY$MM01_0000z.nc4      SpeciesConc_HCOOH 2010-2019/1-12/1/0 C xyz 1        * - 1 1'
RUNDIR_GLOBAL_HNO3='* GLOBAL_HNO3    $ROOT/GCClassic_Output/14.0.0/$YYYY/GEOSChem.SpeciesConc.$YYYY$MM01_0000z.nc4      SpeciesConc_HNO3  2010-2019/1-12/1/0 C xyz 1        * - 1 1'
RUNDIR_GLOBAL_HO2='* GLOBAL_HO2     $ROOT/GCClassic_Output/14.0.0/$YYYY/GEOSChem.SpeciesConc.$YYYY$MM01_0000z.nc4      SpeciesConc_HO2   2010-2019/1-12/1/0 C xyz 1        * - 1 1'
RUNDIR_GLOBAL_HOCl='* GLOBAL_HOCl    $ROOT/GCClassic_Output/14.0.0/$YYYY/GEOSChem.SpeciesConc.$YYYY$MM01_0000z.nc4      SpeciesConc_HOCl  2010-2019/1-12/1/0 C xyz 1        * - 1 1'
RUNDIR_GLOBAL_NIT='* GLOBAL_NIT     $ROOT/GCClassic_Output/14.0.0/$YYYY/GEOSChem.SpeciesConc.$YYYY$MM01_0000z.nc4      SpeciesConc_NIT   2010-2019/1-12/1/0 C xyz 1        * - 1 1'
RUNDIR_GLOBAL_NO='* GLOBAL_NO      $ROOT/GCClassic_Output/14.0.0/$YYYY/GEOSChem.SpeciesConc.$YYYY$MM01_0000z.nc4      SpeciesConc_NO    2010-2019/1-12/1/0 C xyz 1        * - 1 1'
RUNDIR_GLOBAL_NO2='* GLOBAL_NO2     $ROOT/GCClassic_Output/14.0.0/$YYYY/GEOSChem.SpeciesConc.$YYYY$MM01_0000z.nc4      SpeciesConc_NO2   2010-2019/1-12/1/0 C xyz 1        * - 1 1'
RUNDIR_GLOBAL_NO3='* GLOBAL_NO3     $ROOT/GCClassic_Output/14.0.0/$YYYY/GEOSChem.SpeciesConc.$YYYY$MM01_0000z.nc4      SpeciesConc_NO3   2010-2019/1-12/1/0 C xyz 1        * - 1 1'
RUNDIR_GLOBAL_O3='* GLOBAL_O3      $ROOT/GCClassic_Output/14.0.0/$YYYY/GEOSChem.SpeciesConc.$YYYY$MM01_0000z.nc4      SpeciesConc_O3    2010-2019/1-12/1/0 C xyz 1        * - 1 1'
RUNDIR_GLOBAL_OH='* GLOBAL_OH      $ROOT/CH4/v2024-01/GCC_14_Output/$YYYY/GEOSChem.SpeciesConc.$YYYY$MM01_0000z.nc4      SpeciesConc_OH    2010-2019/1-12/1/0 C xyz 1        * - 1 1'
RUNDIR_GLOBAL_PM25='* GLOBAL_PM25    $ROOT/GCClassic_Output/14.0.0/$YYYY/GEOSChem.AerosolMass.$YYYY$MM01_0000z.nc4      PM25              2010-2019/1-12/1/0 C xyz 1        * - 1 1'
RUNDIR_AERO_SO4='* AERO_SO4       $ROOT/GCClassic_Output/14.0.0/$YYYY/GEOSChem.SpeciesConc.$YYYY$MM01_0000z.nc4      SpeciesConc_SO4   2010-2019/1-12/1/0 C xyz 1        * - 1 1'
RUNDIR_AERO_NH4='* AERO_NH4       $ROOT/GCClassic_Output/14.0.0/$YYYY/GEOSChem.SpeciesConc.$YYYY$MM01_0000z.nc4      SpeciesConc_NH4   2010-2019/1-12/1/0 C xyz 1        * - 1 1'
RUNDIR_AERO_NIT='* AERO_NIT       $ROOT/GCClassic_Output/14.0.0/$YYYY/GEOSChem.SpeciesConc.$YYYY$MM01_0000z.nc4      SpeciesConc_NIT   2010-2019/1-12/1/0 C xyz 1        * - 1 1'
RUNDIR_AERO_BCPI='* AERO_BCPI      $ROOT/GCClassic_Output/14.0.0/$YYYY/GEOSChem.SpeciesConc.$YYYY$MM01_0000z.nc4      SpeciesConc_BCPI  2010-2019/1-12/1/0 C xyz 1        * - 1 1'
RUNDIR_AERO_BCPO='* AERO_BCPO      $ROOT/GCClassic_Output/14.0.0/$YYYY/GEOSChem.SpeciesConc.$YYYY$MM01_0000z.nc4      SpeciesConc_BCPO  2010-2019/1-12/1/0 C xyz 1        * - 1 1'
RUNDIR_AERO_OCPI='* AERO_OCPI      $ROOT/GCClassic_Output/14.0.0/$YYYY/GEOSChem.SpeciesConc.$YYYY$MM01_0000z.nc4      SpeciesConc_OCPI  2010-2019/1-12/1/0 C xyz 1        * - 1 1'
RUNDIR_AERO_OCPO='* AERO_OCPO      $ROOT/GCClassic_Output/14.0.0/$YYYY/GEOSChem.SpeciesConc.$YYYY$MM01_0000z.nc4      SpeciesConc_OCPO  2010-2019/1-12/1/0 C xyz 1        * - 1 1'
RUNDIR_AERO_DST1='* AERO_DST1      $ROOT/GCClassic_Output/14.0.0/$YYYY/GEOSChem.SpeciesConc.$YYYY$MM01_0000z.nc4      SpeciesConc_DST1  2010-2019/1-12/1/0 C xyz 1        * - 1 1'
RUNDIR_GLOBAL_OA='* GLOBAL_OA      $ROOT/GCClassic_Output/14.0.0/$YYYY/GEOSChem.AerosolMass.$YYYY$MM01_0000z.nc4      TotalOA           2010-2019/1-12/1/0 C xyz 1        * - 1 1'
RUNDIR_PCO_CH4='* PCO_CH4        $ROOT/CH4/v2024-01/GCC_14_Output/$YYYY/GEOSChem.ProdLoss.$YYYY$MM01_0000z.nc4         ProdCOfromCH4     2010-2019/1-12/1/0 C xyz 1        * - 1 1'
RUNDIR_PCO_NMVOC='* PCO_NMVOC      $ROOT/CH4/v2024-01/GCC_14_Output/$YYYY/GEOSChem.ProdLoss.$YYYY$MM01_0000z.nc4         ProdCOfromNMVOC   2010-2019/1-12/1/0 C xyz 1        * - 1 1'
RUNDIR_PH2O2='* PH2O2          $ROOT/GCClassic_Output/14.0.0/$YYYY/GEOSChem.ProdLoss.$YYYY$MM01_0000z.nc4         Prod_H2O2         2010-2019/1-12/1/0 C xyz 1        * - 1 1'
RUNDIR_O3_PROD='* O3_PROD        $ROOT/GCClassic_Output/14.0.0/$YYYY/GEOSChem.ProdLoss.$YYYY$MM01_0000z.nc4         Prod_Ox           2010-2019/1-12/1/0 C xyz 1        * - 1 1'
RUNDIR_O3_LOSS='* O3_LOSS        $ROOT/GCClassic_Output/14.0.0/$YYYY/GEOSChem.ProdLoss.$YYYY$MM01_0000z.nc4         Loss_Ox           2010-2019/1-12/1/0 C xyz 1        * - 1 1'
RUNDIR_JBrO='* JBrO           $ROOT/GCClassic_Output/14.0.0/$YYYY/GEOSChem.JValues.$YYYY$MM01_0000z.nc4          Jval_BrO          2010-2019/1-12/1/0 C xyz 1        * - 1 1'
RUNDIR_JH2O2='* JH2O2          $ROOT/GCClassic_Output/14.0.0/$YYYY/GEOSChem.JValues.$YYYY$MM01_0000z.nc4          Jval_H2O2         2010-2019/1-12/1/0 C xyz 1        * - 1 1'
RUNDIR_JNO2='* JNO2           $ROOT/GCClassic_Output/14.0.0/$YYYY/GEOSChem.JValues.$YYYY$MM01_0000z.nc4          Jval_NO2          2010-2019/1-12/1/0 C xyz 1        * - 1 1'
RUNDIR_CH4_LOSS='* CH4_LOSS $ROOT/CH4/v2024-01/GC_CH4_LOSS/GCC14_72LM.ch4loss.4x5.nc4  CH4loss  1985/1-12/1/0 C xyz s-1 * - 1 1'
RUNDIR_CO2_COPROD='* CO2_COPROD     $ROOT/CO2/v2024-01/CHEM/CO2_prod_rates.GEOS5.2x25.72L.nc                            LCO               2004-2009/1-12/1/0 C xyz kgC/m3/s * - 1 1'
RUNDIR_Br_TOMCAT='* Br_TOMCAT      $ROOT/MERCURY/v2014-09/BrOx/BrOx.GMI.geos5.2x25.nc                                  LBRO2N                 1985/1-12/1/0 C xyz pptv     * - 1 1'
RUNDIR_BrO_TOMCAT='* BrO_TOMCAT     $ROOT/MERCURY/v2014-09/BrOx/BrOx.GMI.geos5.2x25.nc                                  LBRO2H                 1985/1-12/1/0 C xyz pptv     * - 1 1'
RUNDIR_GLOBAL_OC='1002 GLOBAL_OC   $ROOT/POPs/v2015-08/OCPO.$met.$RES.nc                                               OCPO              2005-2009/1-12/1/0 C xyz 1        * - 1 1'
RUNDIR_GLOBAL_BC='1002 GLOBAL_BC   $ROOT/POPs/v2015-08/BCPO.$met.$RES.nc                                               BCPO              2005-2009/1-12/1/0 C xyz 1        * - 1 1'
RUNDIR_TES_CLIM_CCL4='* TES_CLIM_CCL4  $ROOT/RRTMG/v2018-11/species_clim_profiles.2x25.nc                                  CCl4                   2000/1/1/0    C xyz ppbv     * - 1 1'
RUNDIR_TES_CLIM_CFC11='* TES_CLIM_CFC11 $ROOT/RRTMG/v2018-11/species_clim_profiles.2x25.nc                                  CFC11                  2000/1/1/0    C xyz ppbv     * - 1 1'
RUNDIR_TES_CLIM_CFC12='* TES_CLIM_CFC12 $ROOT/RRTMG/v2018-11/species_clim_profiles.2x25.nc                                  CFC12                  2000/1/1/0    C xyz ppbv     * - 1 1'
RUNDIR_TES_CLIM_CFC22='* TES_CLIM_CFC22 $ROOT/RRTMG/v2018-11/species_clim_profiles.2x25.nc                                  CFC22                  2000/1/1/0    C xyz ppbv     * - 1 1'
RUNDIR_TES_CLIM_CH4='* TES_CLIM_CH4   $ROOT/RRTMG/v2018-11/species_clim_profiles.2x25.nc                                  CH4                    2000/1/1/0    C xyz ppbv     * - 1 1'
RUNDIR_TES_CLIM_N2O='* TES_CLIM_N2O   $ROOT/RRTMG/v2018-11/species_clim_profiles.2x25.nc                                  N2O                    2000/1/1/0    C xyz ppbv     * - 1 1'
RUNDIR_GMI_LOSS_CO='* GMI_LOSS_CO    $ROOT/GMI/v2022-11/gmi.clim.CO.geos5.2x25.nc                                        loss                   2005/1-12/1/0 C xyz s-1     CO - 1 1'
RUNDIR_GMI_PROD_CO='* GMI_PROD_CO    $ROOT/GMI/v2022-11/gmi.clim.CO.geos5.2x25.nc                                        prod                   2005/1-12/1/0 C xyz v/v/s   CO - 1 1'
RUNDIR_OCEAN_MASK='1000 OCEAN_MASK  $METDIR/$CNYR/01/$MET.$CNYR0101.CN.$RES.$NC                                         FROCEAN           2000/1/1/0 C xy 1 1       -180/-90/180/90'


RUNDIR_Hg_GLOBAL_Br='* GLOBAL_Br    $ROOT/MERCURY/v2022-04/Oxidants_for_Hg_sim_2016.nc4  Br           2016/1-12/1/0 C xyz 1  * - 1 1'
RUNDIR_Hg_GLOBAL_BrO='* GLOBAL_BrO   $ROOT/MERCURY/v2022-04/Oxidants_for_Hg_sim_2016.nc4  BrO          2016/1-12/1/0 C xyz 1  * - 1 1'
RUNDIR_Hg_GLOBAL_CH4='* GLOBAL_CH4   $ROOT/MERCURY/v2022-04/Oxidants_for_Hg_sim_2016.nc4  CH4          2016/1-12/1/0 C xyz 1  * - 1 1'
RUNDIR_Hg_GLOBAL_Cl='* GLOBAL_Cl    $ROOT/MERCURY/v2022-04/Oxidants_for_Hg_sim_2016.nc4  Cl           2016/1-12/1/0 C xyz 1  * - 1 1'
RUNDIR_Hg_GLOBAL_ClO='* GLOBAL_ClO   $ROOT/MERCURY/v2022-04/Oxidants_for_Hg_sim_2016.nc4  ClO          2016/1-12/1/0 C xyz 1  * - 1 1'
RUNDIR_Hg_GLOBAL_CO='* GLOBAL_CO    $ROOT/MERCURY/v2022-04/Oxidants_for_Hg_sim_2016.nc4  CO           2016/1-12/1/0 C xyz 1  * - 1 1'
RUNDIR_Hg_GLOBAL_HO2='* GLOBAL_HO2   $ROOT/MERCURY/v2022-04/Oxidants_for_Hg_sim_2016.nc4  HO2          2016/1-12/1/0 C xyz 1  * - 1 1'
RUNDIR_Hg_GLOBAL_NO='* GLOBAL_NO    $ROOT/MERCURY/v2022-04/Oxidants_for_Hg_sim_2016.nc4  NO           2016/1-12/1/0 C xyz 1  * - 1 1'
RUNDIR_Hg_GLOBAL_NO2='* GLOBAL_NO2   $ROOT/MERCURY/v2022-04/Oxidants_for_Hg_sim_2016.nc4  NO2          2016/1-12/1/0 C xyz 1  * - 1 1'
RUNDIR_Hg_GLOBAL_O3='* GLOBAL_O3    $ROOT/MERCURY/v2022-04/Oxidants_for_Hg_sim_2016.nc4  O3           2016/1-12/1/0 C xyz 1  * - 1 1'
RUNDIR_Hg_GLOBAL_OH='* GLOBAL_OH    $ROOT/MERCURY/v2022-04/Oxidants_for_Hg_sim_2016.nc4  OH           2016/1-12/1/0 C xyz 1  * - 1 1'
RUNDIR_Hg_GLOBAL_fOA='* GLOBAL_fOA   $ROOT/MERCURY/v2022-04/Oxidants_for_Hg_sim_2016.nc4  fOA          2016/1-12/1/0 C xyz 1  * - 1 1'
RUNDIR_Hg_GLOBAL_OCEAN='* GLOBAL_OCEAN $ROOT/MERCURY/v2018-04/ocean_fixed.nc                ocean_conc   2007/1-12/1/0 C xy  1  * - 1 1'
RUNDIR_Hg_GLOBAL_PM25='* GLOBAL_PM25  $ROOT/MERCURY/v2022-04/Oxidants_for_Hg_sim_2016.nc4  PM25         2016/1-12/1/0 C xyz 1  * - 1 1'
RUNDIR_Hg_GLOBAL_RH='* GLOBAL_RH    $ROOT/MERCURY/v2022-04/Oxidants_for_Hg_sim_2016.nc4  RH           2016/1-12/1/0 C xyz 1  * - 1 1'
RUNDIR_Hg_GLOBAL_AOD_BC='* AOD_BC       $ROOT/MERCURY/v2022-04/Aerosols_for_Hg_sim_2016.nc4  AOD_BC       2016/1-12/1/0 C xyz 1  * - 1 1'
RUNDIR_Hg_GLOBAL_AOD_BGSULF='* AOD_BGSULF   $ROOT/MERCURY/v2022-04/Aerosols_for_Hg_sim_2016.nc4  AOD_BGSULF   2016/1-12/1/0 C xyz 1  * - 1 1'
RUNDIR_Hg_GLOBAL_AOD_DST1='* AOD_DST1     $ROOT/MERCURY/v2022-04/Aerosols_for_Hg_sim_2016.nc4  AOD_DST1     2016/1-12/1/0 C xyz 1  * - 1 1'
RUNDIR_Hg_GLOBAL_AOD_DST2='* AOD_DST2     $ROOT/MERCURY/v2022-04/Aerosols_for_Hg_sim_2016.nc4  AOD_DST2     2016/1-12/1/0 C xyz 1  * - 1 1'
RUNDIR_Hg_GLOBAL_AOD_DST3='* AOD_DST3     $ROOT/MERCURY/v2022-04/Aerosols_for_Hg_sim_2016.nc4  AOD_DST3     2016/1-12/1/0 C xyz 1  * - 1 1'
RUNDIR_Hg_GLOBAL_AOD_DST4='* AOD_DST4     $ROOT/MERCURY/v2022-04/Aerosols_for_Hg_sim_2016.nc4  AOD_DST4     2016/1-12/1/0 C xyz 1  * - 1 1'
RUNDIR_Hg_GLOBAL_AOD_DST5='* AOD_DST5     $ROOT/MERCURY/v2022-04/Aerosols_for_Hg_sim_2016.nc4  AOD_DST5     2016/1-12/1/0 C xyz 1  * - 1 1'
RUNDIR_Hg_GLOBAL_AOD_DST6='* AOD_DST6     $ROOT/MERCURY/v2022-04/Aerosols_for_Hg_sim_2016.nc4  AOD_DST6     2016/1-12/1/0 C xyz 1  * - 1 1'
RUNDIR_Hg_GLOBAL_AOD_DST7='* AOD_DST7     $ROOT/MERCURY/v2022-04/Aerosols_for_Hg_sim_2016.nc4  AOD_DST7     2016/1-12/1/0 C xyz 1  * - 1 1'
RUNDIR_Hg_GLOBAL_AOD_ICEI='* AOD_ICEI     $ROOT/MERCURY/v2022-04/Aerosols_for_Hg_sim_2016.nc4  AOD_ICEI     2016/1-12/1/0 C xyz 1  * - 1 1'
RUNDIR_Hg_GLOBAL_AOD_OC='* AOD_OC       $ROOT/MERCURY/v2022-04/Aerosols_for_Hg_sim_2016.nc4  AOD_OC       2016/1-12/1/0 C xyz 1  * - 1 1'
RUNDIR_Hg_GLOBAL_AOD_SO4='* AOD_SO4      $ROOT/MERCURY/v2022-04/Aerosols_for_Hg_sim_2016.nc4  AOD_SO4      2016/1-12/1/0 C xyz 1  * - 1 1'
RUNDIR_Hg_GLOBAL_AOD_SSA='* AOD_SSA      $ROOT/MERCURY/v2022-04/Aerosols_for_Hg_sim_2016.nc4  AOD_SSA      2016/1-12/1/0 C xyz 1  * - 1 1'
RUNDIR_Hg_GLOBAL_AOD_SSC='* AOD_SSC      $ROOT/MERCURY/v2022-04/Aerosols_for_Hg_sim_2016.nc4  AOD_SSC      2016/1-12/1/0 C xyz 1  * - 1 1'
RUNDIR_Hg_GLOBAL_AREA_BC='* Area_BC      $ROOT/MERCURY/v2022-04/Aerosols_for_Hg_sim_2016.nc4  Area_BC      2016/1-12/1/0 C xyz 1  * - 1 1'
RUNDIR_Hg_GLOBAL_AREA_BGSULF='* Area_BGSULF  $ROOT/MERCURY/v2022-04/Aerosols_for_Hg_sim_2016.nc4  Area_BGSULF  2016/1-12/1/0 C xyz 1  * - 1 1'
RUNDIR_Hg_GLOBAL_AREA_DST1='* Area_DST1    $ROOT/MERCURY/v2022-04/Aerosols_for_Hg_sim_2016.nc4  Area_DST1    2016/1-12/1/0 C xyz 1  * - 1 1'
RUNDIR_Hg_GLOBAL_AREA_DST2='* Area_DST2    $ROOT/MERCURY/v2022-04/Aerosols_for_Hg_sim_2016.nc4  Area_DST2    2016/1-12/1/0 C xyz 1  * - 1 1'
RUNDIR_Hg_GLOBAL_AREA_DST3='* Area_DST3    $ROOT/MERCURY/v2022-04/Aerosols_for_Hg_sim_2016.nc4  Area_DST3    2016/1-12/1/0 C xyz 1  * - 1 1'
RUNDIR_Hg_GLOBAL_AREA_DST4='* Area_DST4    $ROOT/MERCURY/v2022-04/Aerosols_for_Hg_sim_2016.nc4  Area_DST4    2016/1-12/1/0 C xyz 1  * - 1 1'
RUNDIR_Hg_GLOBAL_AREA_DST5='* Area_DST5    $ROOT/MERCURY/v2022-04/Aerosols_for_Hg_sim_2016.nc4  Area_DST5    2016/1-12/1/0 C xyz 1  * - 1 1'
RUNDIR_Hg_GLOBAL_AREA_DST6='* Area_DST6    $ROOT/MERCURY/v2022-04/Aerosols_for_Hg_sim_2016.nc4  Area_DST6    2016/1-12/1/0 C xyz 1  * - 1 1'
RUNDIR_Hg_GLOBAL_AREA_DST7='* Area_DST7    $ROOT/MERCURY/v2022-04/Aerosols_for_Hg_sim_2016.nc4  Area_DST7    2016/1-12/1/0 C xyz 1  * - 1 1'
RUNDIR_Hg_GLOBAL_AREA_ICEI='* Area_ICEI    $ROOT/MERCURY/v2022-04/Aerosols_for_Hg_sim_2016.nc4  Area_ICEI    2016/1-12/1/0 C xyz 1  * - 1 1'
RUNDIR_Hg_GLOBAL_AREA_OC='* Area_OC      $ROOT/MERCURY/v2022-04/Aerosols_for_Hg_sim_2016.nc4  Area_OC      2016/1-12/1/0 C xyz 1  * - 1 1'
RUNDIR_Hg_GLOBAL_AREA_SO4='* Area_SO4     $ROOT/MERCURY/v2022-04/Aerosols_for_Hg_sim_2016.nc4  Area_SO4     2016/1-12/1/0 C xyz 1  * - 1 1'
RUNDIR_Hg_GLOBAL_AREA_SSA='* Area_SSA     $ROOT/MERCURY/v2022-04/Aerosols_for_Hg_sim_2016.nc4  Area_SSA     2016/1-12/1/0 C xyz 1  * - 1 1'
RUNDIR_Hg_GLOBAL_AREA_SSC='* Area_SSC     $ROOT/MERCURY/v2022-04/Aerosols_for_Hg_sim_2016.nc4  Area_SSC     2016/1-12/1/0 C xyz 1  * - 1 1'
RUNDIR_Hg_GLOBAL_RADI_BC='* Radi_BC      $ROOT/MERCURY/v2022-04/Aerosols_for_Hg_sim_2016.nc4  Radi_BC      2016/1-12/1/0 C xyz 1  * - 1 1'
RUNDIR_Hg_GLOBAL_RADI_BGSULF='* Radi_BGSULF  $ROOT/MERCURY/v2022-04/Aerosols_for_Hg_sim_2016.nc4  Radi_BGSULF  2016/1-12/1/0 C xyz 1  * - 1 1'
RUNDIR_Hg_GLOBAL_RADI_DST1='* Radi_DST1    $ROOT/MERCURY/v2022-04/Aerosols_for_Hg_sim_2016.nc4  Radi_DST1    2016/1-12/1/0 C xyz 1  * - 1 1'
RUNDIR_Hg_GLOBAL_RADI_DST2='* Radi_DST2    $ROOT/MERCURY/v2022-04/Aerosols_for_Hg_sim_2016.nc4  Radi_DST2    2016/1-12/1/0 C xyz 1  * - 1 1'
RUNDIR_Hg_GLOBAL_RADI_DST3='* Radi_DST3    $ROOT/MERCURY/v2022-04/Aerosols_for_Hg_sim_2016.nc4  Radi_DST3    2016/1-12/1/0 C xyz 1  * - 1 1'
RUNDIR_Hg_GLOBAL_RADI_DST4='* Radi_DST4    $ROOT/MERCURY/v2022-04/Aerosols_for_Hg_sim_2016.nc4  Radi_DST4    2016/1-12/1/0 C xyz 1  * - 1 1'
RUNDIR_Hg_GLOBAL_RADI_DST5='* Radi_DST5    $ROOT/MERCURY/v2022-04/Aerosols_for_Hg_sim_2016.nc4  Radi_DST5    2016/1-12/1/0 C xyz 1  * - 1 1'
RUNDIR_Hg_GLOBAL_RADI_DST6='* Radi_DST6    $ROOT/MERCURY/v2022-04/Aerosols_for_Hg_sim_2016.nc4  Radi_DST6    2016/1-12/1/0 C xyz 1  * - 1 1'
RUNDIR_Hg_GLOBAL_RADI_DST7='* Radi_DST7    $ROOT/MERCURY/v2022-04/Aerosols_for_Hg_sim_2016.nc4  Radi_DST7    2016/1-12/1/0 C xyz 1  * - 1 1'
RUNDIR_Hg_GLOBAL_RADI_ICEI='* Radi_ICEI    $ROOT/MERCURY/v2022-04/Aerosols_for_Hg_sim_2016.nc4  Radi_ICEI    2016/1-12/1/0 C xyz 1  * - 1 1'
RUNDIR_Hg_GLOBAL_RADI_OC='* Radi_OC      $ROOT/MERCURY/v2022-04/Aerosols_for_Hg_sim_2016.nc4  Radi_OC      2016/1-12/1/0 C xyz 1  * - 1 1'
RUNDIR_Hg_GLOBAL_RADI_SO4='* Radi_SO4     $ROOT/MERCURY/v2022-04/Aerosols_for_Hg_sim_2016.nc4  Radi_SO4     2016/1-12/1/0 C xyz 1  * - 1 1'
RUNDIR_Hg_GLOBAL_RADI_SSA='* Radi_SSA     $ROOT/MERCURY/v2022-04/Aerosols_for_Hg_sim_2016.nc4  Radi_SSA     2016/1-12/1/0 C xyz 1  * - 1 1'
RUNDIR_Hg_GLOBAL_RADI_SSC='* Radi_SSC     $ROOT/MERCURY/v2022-04/Aerosols_for_Hg_sim_2016.nc4  Radi_SSC     2016/1-12/1/0 C xyz 1  * - 1 1'

