This is a HEMCO standalone run directory.

For more information on how to download and run the HEMCO Standalone model,
please see:

  https://hemco.readthedocs.io/en/stable/hco-sa-guide/intro.html

17 Nov 2025
GEOS-Chem Support Team
